&HEAD  CHID='output', Title='Test Title' /

&TIME T_END=120 /

&DUMP WRITE_XYZ=.TRUE., DT_PL3D=0.1 /
&REAC FUEL='CELLULOSE', C=6, H=10, O=5, SOOT_YIELD=0.01, HEAT_OF_COMBUSTION=18607. /
&MISC LEVEL_SET_MODE=4 /

&VENT MB='XMIN' SURF_ID='OPEN' /
&VENT MB='XMAX' SURF_ID='OPEN' /
&VENT MB='YMIN' SURF_ID='OPEN' /
&VENT MB='YMAX' SURF_ID='OPEN' /
&VENT MB='ZMAX' SURF_ID='OPEN' /


&SURF ID='1', VEG_LSET_FUEL_INDEX=1, RGB=255,254,222/
&SURF ID='2', VEG_LSET_FUEL_INDEX=2, RGB=255,253,102/
&SURF ID='3',  VEG_LSET_FUEL_INDEX=3, RGB= 236,212,99/
&SURF ID='4',  VEG_LSET_FUEL_INDEX=4, RGB=254,193,119/
&SURF ID='5', VEG_LSET_FUEL_INDEX=5, RGB=249, 197, 92/
&SURF ID='6',  VEG_LSET_FUEL_INDEX=6, RGB=217, 196, 152/
&SURF ID='7',  VEG_LSET_FUEL_INDEX=7, RGB=170, 155, 127/
&SURF ID='8',  VEG_LSET_FUEL_INDEX=8, RGB=229, 253, 214/
&SURF ID='9',  VEG_LSET_FUEL_INDEX=9, RGB=162, 191, 90/
&SURF ID='10', VEG_LSET_FUEL_INDEX=10, RGB=162, 191, 90/
&SURF ID='11',  VEG_LSET_FUEL_INDEX=11, RGB=235, 212, 253/
&SURF ID='12',  VEG_LSET_FUEL_INDEX=12, RGB=148,212,116/
&SURF ID='13',  VEG_LSET_FUEL_INDEX=13, RGB=88,212,102/
&SURF ID='0',  RGB=186, 119, 80/
&SURF ID='IGN FIRE', HRRPUA = 500, COLOR = 'RED', RAMP_Q = 'fire' /
&RAMP ID='fire', T=0, F=0. /
&RAMP ID='fire', T=1, F=1. /
&RAMP ID='fire', T=60, F=1. /
&RAMP ID='fire', T=61, F=0. /
&OBST XB=-2740.2216345346533,-2690.2216345346533,2737.38321457454,2787.38321457454,1485,1486,SURF_ID = 'IGN FIRE' /
&MULT ID="m1",DX=6480.169324192393, DY=6489.738010349916, DZ=507.0, I_UPPER=0, J_UPPER=0, K_UPPER=0 /
&MESH IJK=50, 50, 50, XB=-3241, -3210, 2876, 3238, 1229, 1736.0, MULT_ID="m1" / 1 Mesh
&OBST XB= -3240.2216345346533,-3210.1765511534036,3237.38321457454,3207.382430666242,1229,1402,  SURF_ID='5'/
&OBST XB= -3240.2216345346533,-3210.1765511534036,3207.382430666242,3177.3816467579436,1229,1397,  SURF_ID='2'/
&OBST XB= -3240.2216345346533,-3210.1765511534036,3177.3816467579436,3147.380862849646,1229,1403,  SURF_ID='5'/
&OBST XB= -3240.2216345346533,-3210.1765511534036,3147.380862849646,3117.3800789413476,1229,1399,  SURF_ID='5'/
&OBST XB= -3240.2216345346533,-3210.1765511534036,3117.3800789413476,3087.3792950330494,1229,1399,  SURF_ID='5'/
&OBST XB= -3240.2216345346533,-3210.1765511534036,3087.3792950330494,3057.378511124751,1229,1393,  SURF_ID='2'/
&OBST XB= -3240.2216345346533,-3210.1765511534036,3057.378511124751,3027.3777272164534,1229,1364,  SURF_ID='5'/
&OBST XB= -3240.2216345346533,-3210.1765511534036,3027.3777272164534,2997.376943308155,1229,1370,  SURF_ID='5'/
&OBST XB= -3240.2216345346533,-3210.1765511534036,2997.376943308155,2967.376159399857,1229,1388,  SURF_ID='5'/
&OBST XB= -3240.2216345346533,-3210.1765511534036,2967.376159399857,2937.3753754915588,1229,1401,  SURF_ID='5'/
&OBST XB= -3240.2216345346533,-3210.1765511534036,2937.3753754915588,2907.3745915832606,1229,1413,  SURF_ID='5'/
&OBST XB= -3240.2216345346533,-3210.1765511534036,2907.3745915832606,2877.373807674963,1229,1413,  SURF_ID='5'/
&OBST XB= -3240.2216345346533,-3210.1765511534036,2877.373807674963,2847.3730237666646,1229,1428,  SURF_ID='5'/
&OBST XB= -3240.2216345346533,-3210.1765511534036,2847.3730237666646,2817.3722398583664,1229,1456,  SURF_ID='9'/
&OBST XB= -3240.2216345346533,-3210.1765511534036,2817.3722398583664,2787.371455950068,1229,1468,  SURF_ID='9'/
&OBST XB= -3240.2216345346533,-3210.1765511534036,2787.371455950068,2757.3706720417704,1229,1482,  SURF_ID='2'/
&OBST XB= -3240.2216345346533,-3210.1765511534036,2757.3706720417704,2727.369888133472,1229,1485,  SURF_ID='2'/
&OBST XB= -3240.2216345346533,-3210.1765511534036,2727.369888133472,2697.369104225174,1229,1476,  SURF_ID='2'/
&OBST XB= -3240.2216345346533,-3210.1765511534036,2697.369104225174,2667.3683203168757,1229,1476,  SURF_ID='2'/
&OBST XB= -3240.2216345346533,-3210.1765511534036,2667.3683203168757,2637.3675364085775,1229,1470,  SURF_ID='2'/
&OBST XB= -3240.2216345346533,-3210.1765511534036,2637.3675364085775,2607.3667525002793,1229,1465,  SURF_ID='2'/
&OBST XB= -3240.2216345346533,-3210.1765511534036,2607.3667525002793,2577.3659685919815,1229,1449,  SURF_ID='2'/
&OBST XB= -3240.2216345346533,-3210.1765511534036,2577.3659685919815,2547.3651846836833,1229,1437,  SURF_ID='2'/
&OBST XB= -3240.2216345346533,-3210.1765511534036,2547.3651846836833,2517.364400775385,1229,1446,  SURF_ID='2'/
&OBST XB= -3240.2216345346533,-3210.1765511534036,2517.364400775385,2487.3636168670873,1229,1460,  SURF_ID='2'/
&OBST XB= -3240.2216345346533,-3210.1765511534036,2487.3636168670873,2457.362832958789,1229,1460,  SURF_ID='2'/
&OBST XB= -3240.2216345346533,-3210.1765511534036,2457.362832958789,2427.362049050491,1229,1472,  SURF_ID='2'/
&OBST XB= -3240.2216345346533,-3210.1765511534036,2427.362049050491,2397.3612651421927,1229,1482,  SURF_ID='2'/
&OBST XB= -3240.2216345346533,-3210.1765511534036,2397.3612651421927,2367.3604812338945,1229,1483,  SURF_ID='0'/
&OBST XB= -3240.2216345346533,-3210.1765511534036,2367.3604812338945,2337.3596973255962,1229,1482,  SURF_ID='2'/
&OBST XB= -3240.2216345346533,-3210.1765511534036,2337.3596973255962,2307.3589134172985,1229,1482,  SURF_ID='2'/
&OBST XB= -3240.2216345346533,-3210.1765511534036,2307.3589134172985,2277.3581295090003,1229,1482,  SURF_ID='2'/
&OBST XB= -3240.2216345346533,-3210.1765511534036,2277.3581295090003,2247.357345600702,1229,1482,  SURF_ID='2'/
&OBST XB= -3240.2216345346533,-3210.1765511534036,2247.357345600702,2217.3565616924043,1229,1468,  SURF_ID='2'/
&OBST XB= -3240.2216345346533,-3210.1765511534036,2217.3565616924043,2187.355777784106,1229,1464,  SURF_ID='2'/
&OBST XB= -3240.2216345346533,-3210.1765511534036,2187.355777784106,2157.354993875808,1229,1454,  SURF_ID='9'/
&OBST XB= -3240.2216345346533,-3210.1765511534036,2157.354993875808,2127.3542099675096,1229,1423,  SURF_ID='5'/
&OBST XB= -3240.2216345346533,-3210.1765511534036,2127.3542099675096,2097.3534260592114,1229,1420,  SURF_ID='5'/
&OBST XB= -3240.2216345346533,-3210.1765511534036,2097.3534260592114,2067.352642150913,1229,1428,  SURF_ID='2'/
&OBST XB= -3240.2216345346533,-3210.1765511534036,2067.352642150913,2037.3518582426154,1229,1428,  SURF_ID='2'/
&OBST XB= -3240.2216345346533,-3210.1765511534036,2037.3518582426154,2007.3510743343172,1229,1439,  SURF_ID='2'/
&OBST XB= -3240.2216345346533,-3210.1765511534036,2007.3510743343172,1977.350290426019,1229,1448,  SURF_ID='2'/
&OBST XB= -3240.2216345346533,-3210.1765511534036,1977.350290426019,1947.349506517721,1229,1454,  SURF_ID='2'/
&OBST XB= -3240.2216345346533,-3210.1765511534036,1947.349506517721,1917.3487226094228,1229,1447,  SURF_ID='2'/
&OBST XB= -3240.2216345346533,-3210.1765511534036,1917.3487226094228,1887.3479387011248,1229,1459,  SURF_ID='2'/
&OBST XB= -3240.2216345346533,-3210.1765511534036,1887.3479387011248,1857.3471547928266,1229,1465,  SURF_ID='2'/
&OBST XB= -3240.2216345346533,-3210.1765511534036,1857.3471547928266,1827.3463708845286,1229,1465,  SURF_ID='2'/
&OBST XB= -3240.2216345346533,-3210.1765511534036,1827.3463708845286,1797.3455869762304,1229,1469,  SURF_ID='2'/
&OBST XB= -3240.2216345346533,-3210.1765511534036,1797.3455869762304,1767.3448030679322,1229,1457,  SURF_ID='2'/
&OBST XB= -3240.2216345346533,-3210.1765511534036,1767.3448030679322,1737.3440191596342,1229,1455,  SURF_ID='2'/
&OBST XB= -3240.2216345346533,-3210.1765511534036,1737.3440191596342,1707.343235251336,1229,1449,  SURF_ID='2'/
&OBST XB= -3240.2216345346533,-3210.1765511534036,1707.343235251336,1677.342451343038,1229,1423,  SURF_ID='2'/
&OBST XB= -3240.2216345346533,-3210.1765511534036,1677.342451343038,1647.3416674347397,1229,1410,  SURF_ID='5'/
&OBST XB= -3240.2216345346533,-3210.1765511534036,1647.3416674347397,1617.3408835264418,1229,1410,  SURF_ID='5'/
&OBST XB= -3240.2216345346533,-3210.1765511534036,1617.3408835264418,1587.3400996181435,1229,1419,  SURF_ID='5'/
&OBST XB= -3240.2216345346533,-3210.1765511534036,1587.3400996181435,1557.3393157098453,1229,1430,  SURF_ID='2'/
&OBST XB= -3240.2216345346533,-3210.1765511534036,1557.3393157098453,1527.3385318015473,1229,1444,  SURF_ID='2'/
&OBST XB= -3240.2216345346533,-3210.1765511534036,1527.3385318015473,1497.3377478932491,1229,1462,  SURF_ID='2'/
&OBST XB= -3240.2216345346533,-3210.1765511534036,1497.3377478932491,1467.3369639849511,1229,1478,  SURF_ID='2'/
&OBST XB= -3240.2216345346533,-3210.1765511534036,1467.3369639849511,1437.336180076653,1229,1500,  SURF_ID='2'/
&OBST XB= -3240.2216345346533,-3210.1765511534036,1437.336180076653,1407.335396168355,1229,1500,  SURF_ID='2'/
&OBST XB= -3240.2216345346533,-3210.1765511534036,1407.335396168355,1377.3346122600567,1229,1512,  SURF_ID='9'/
&OBST XB= -3240.2216345346533,-3210.1765511534036,1377.3346122600567,1347.3338283517587,1229,1520,  SURF_ID='2'/
&OBST XB= -3240.2216345346533,-3210.1765511534036,1347.3338283517587,1317.3330444434605,1229,1526,  SURF_ID='2'/
&OBST XB= -3240.2216345346533,-3210.1765511534036,1317.3330444434605,1287.3322605351623,1229,1523,  SURF_ID='2'/
&OBST XB= -3240.2216345346533,-3210.1765511534036,1287.3322605351623,1257.3314766268643,1229,1535,  SURF_ID='5'/
&OBST XB= -3240.2216345346533,-3210.1765511534036,1257.3314766268643,1227.330692718566,1229,1552,  SURF_ID='2'/
&OBST XB= -3240.2216345346533,-3210.1765511534036,1227.330692718566,1197.329908810268,1229,1552,  SURF_ID='2'/
&OBST XB= -3240.2216345346533,-3210.1765511534036,1197.329908810268,1167.3291249019699,1229,1562,  SURF_ID='2'/
&OBST XB= -3240.2216345346533,-3210.1765511534036,1167.3291249019699,1137.3283409936716,1229,1582,  SURF_ID='2'/
&OBST XB= -3240.2216345346533,-3210.1765511534036,1137.3283409936716,1107.3275570853739,1229,1591,  SURF_ID='2'/
&OBST XB= -3240.2216345346533,-3210.1765511534036,1107.3275570853739,1077.3267731770757,1229,1597,  SURF_ID='9'/
&OBST XB= -3240.2216345346533,-3210.1765511534036,1077.3267731770757,1047.3259892687774,1229,1602,  SURF_ID='5'/
&OBST XB= -3240.2216345346533,-3210.1765511534036,1047.3259892687774,1017.3252053604792,1229,1605,  SURF_ID='2'/
&OBST XB= -3240.2216345346533,-3210.1765511534036,1017.3252053604792,987.324421452181,1229,1605,  SURF_ID='2'/
&OBST XB= -3240.2216345346533,-3210.1765511534036,987.324421452181,957.3236375438833,1229,1610,  SURF_ID='2'/
&OBST XB= -3240.2216345346533,-3210.1765511534036,957.3236375438833,927.322853635585,1229,1611,  SURF_ID='2'/
&OBST XB= -3240.2216345346533,-3210.1765511534036,927.322853635585,897.3220697272868,1229,1607,  SURF_ID='2'/
&OBST XB= -3240.2216345346533,-3210.1765511534036,897.3220697272868,867.3212858189886,1229,1599,  SURF_ID='2'/
&OBST XB= -3240.2216345346533,-3210.1765511534036,867.3212858189886,837.3205019106908,1229,1586,  SURF_ID='2'/