&HEAD  CHID='output', Title='This is the Title ' / 

&TIME T_END=1.0 /

&DUMP WRITE_XYZ=.TRUE., DT_PL3D=0.1 /
&REAC FUEL='CELLULOSE', C=6, H=10, O=5, SOOT_YIELD=0.01, HEAT_OF_COMBUSTION=18607. /
&MISC LEVEL_SET_MODE=4 /

&VENT MB='XMIN' SURF_ID='OPEN' / 
&VENT MB='XMAX' SURF_ID='OPEN' / 
&VENT MB='YMIN' SURF_ID='OPEN' / 
&VENT MB='YMAX' SURF_ID='OPEN' / 
&VENT MB='ZMAX' SURF_ID='OPEN' / 


&SURF ID='1', VEG_LSET_FUEL_INDEX=1, RGB=255,254,222/
&SURF ID='2', VEG_LSET_FUEL_INDEX=2, RGB=255,253,102/
&SURF ID='3',  VEG_LSET_FUEL_INDEX=3, RGB= 236,212,99/
&SURF ID='4',  VEG_LSET_FUEL_INDEX=4, RGB=254,193,119/
&SURF ID='5', VEG_LSET_FUEL_INDEX=5, RGB=249, 197, 92/
&SURF ID='6',  VEG_LSET_FUEL_INDEX=6, RGB=217, 196, 152/
&SURF ID='7',  VEG_LSET_FUEL_INDEX=7, RGB=170, 155, 127/
&SURF ID='8',  VEG_LSET_FUEL_INDEX=8, RGB=229, 253, 214/
&SURF ID='9',  VEG_LSET_FUEL_INDEX=9, RGB=162, 191, 90/
&SURF ID='10', VEG_LSET_FUEL_INDEX=10, RGB=162, 191, 90/
&SURF ID='11',  VEG_LSET_FUEL_INDEX=11, RGB=235, 212, 253/
&SURF ID='12',  VEG_LSET_FUEL_INDEX=12, RGB=148,212,116/
&SURF ID='13',  VEG_LSET_FUEL_INDEX=13, RGB=88,212,102/
&SURF ID='0',  RGB=186, 119, 80/
&SURF ID='IGN FIRE', HRRPUA = 500, COLOR = 'RED', RAMP_Q = 'fire' /
&RAMP ID='fire', T=0, F=0. /
&RAMP ID='fire', T=1, F=1. /
&RAMP ID='fire', T=60, F=1. /
&RAMP ID='fire', T=61, F=0. /
&OBST XB=-2740.2216345346533,-2690.2216345346533,2737.38321457454,2787.38321457454,1485,1486,SURF_ID = 'IGN FIRE' /
&MESH IJK=100, 100, 100, XB=-3240,3250,-3243,3237,1229,1736/
&OBST XB= -3240,-3210,3237,3207,1229,1402,  SURF_ID='5'/ 
&OBST XB= -3240,-3210,3207,3177,1229,1397,  SURF_ID='2'/ 
&OBST XB= -3240,-3210,3177,3147,1229,1403,  SURF_ID='5'/ 
&OBST XB= -3240,-3210,3147,3117,1229,1399,  SURF_ID='5'/ 
&OBST XB= -3240,-3210,3117,3087,1229,1399,  SURF_ID='5'/ 
&OBST XB= -3240,-3210,3087,3057,1229,1393,  SURF_ID='2'/ 
&OBST XB= -3240,-3210,3057,3027,1229,1364,  SURF_ID='5'/ 
&OBST XB= -3240,-3210,3027,2997,1229,1370,  SURF_ID='5'/ 
&OBST XB= -3240,-3210,2997,2967,1229,1388,  SURF_ID='5'/ 
&OBST XB= -3240,-3210,2967,2937,1229,1401,  SURF_ID='5'/ 
&OBST XB= -3240,-3210,2937,2907,1229,1413,  SURF_ID='5'/ 
&OBST XB= -3240,-3210,2907,2877,1229,1413,  SURF_ID='5'/ 
&OBST XB= -3240,-3210,2877,2847,1229,1428,  SURF_ID='5'/ 
&OBST XB= -3240,-3210,2847,2817,1229,1456,  SURF_ID='9'/ 
&OBST XB= -3240,-3210,2817,2787,1229,1468,  SURF_ID='9'/ 
&OBST XB= -3240,-3210,2787,2757,1229,1482,  SURF_ID='2'/ 
&OBST XB= -3240,-3210,2757,2727,1229,1485,  SURF_ID='2'/ 
&OBST XB= -3240,-3210,2727,2697,1229,1476,  SURF_ID='2'/ 
&OBST XB= -3240,-3210,2697,2667,1229,1476,  SURF_ID='2'/ 
&OBST XB= -3240,-3210,2667,2637,1229,1470,  SURF_ID='2'/ 
&OBST XB= -3240,-3210,2637,2607,1229,1465,  SURF_ID='2'/ 
&OBST XB= -3240,-3210,2607,2577,1229,1449,  SURF_ID='2'/ 
&OBST XB= -3240,-3210,2577,2547,1229,1437,  SURF_ID='2'/ 
&OBST XB= -3240,-3210,2547,2517,1229,1446,  SURF_ID='2'/ 
&OBST XB= -3240,-3210,2517,2487,1229,1460,  SURF_ID='2'/ 
&OBST XB= -3240,-3210,2487,2457,1229,1460,  SURF_ID='2'/ 
&OBST XB= -3240,-3210,2457,2427,1229,1472,  SURF_ID='2'/ 
&OBST XB= -3240,-3210,2427,2397,1229,1482,  SURF_ID='2'/ 
&OBST XB= -3240,-3210,2397,2367,1229,1483,  SURF_ID='0'/ 
&OBST XB= -3240,-3210,2367,2337,1229,1482,  SURF_ID='2'/ 
&OBST XB= -3240,-3210,2337,2307,1229,1482,  SURF_ID='2'/ 
&OBST XB= -3240,-3210,2307,2277,1229,1482,  SURF_ID='2'/ 
&OBST XB= -3240,-3210,2277,2247,1229,1482,  SURF_ID='2'/ 
&OBST XB= -3240,-3210,2247,2217,1229,1468,  SURF_ID='2'/ 
&OBST XB= -3240,-3210,2217,2187,1229,1464,  SURF_ID='2'/ 
&OBST XB= -3240,-3210,2187,2157,1229,1454,  SURF_ID='9'/ 
&OBST XB= -3240,-3210,2157,2127,1229,1423,  SURF_ID='5'/ 
&OBST XB= -3240,-3210,2127,2097,1229,1420,  SURF_ID='5'/ 
&OBST XB= -3240,-3210,2097,2067,1229,1428,  SURF_ID='2'/ 
&OBST XB= -3240,-3210,2067,2037,1229,1428,  SURF_ID='2'/ 
&OBST XB= -3240,-3210,2037,2007,1229,1439,  SURF_ID='2'/ 
&OBST XB= -3240,-3210,2007,1977,1229,1448,  SURF_ID='2'/ 
&OBST XB= -3240,-3210,1977,1947,1229,1454,  SURF_ID='2'/ 
&OBST XB= -3240,-3210,1947,1917,1229,1447,  SURF_ID='2'/ 
&OBST XB= -3240,-3210,1917,1887,1229,1459,  SURF_ID='2'/ 
&OBST XB= -3240,-3210,1887,1857,1229,1465,  SURF_ID='2'/ 
&OBST XB= -3240,-3210,1857,1827,1229,1465,  SURF_ID='2'/ 
&OBST XB= -3240,-3210,1827,1797,1229,1469,  SURF_ID='2'/ 
&OBST XB= -3240,-3210,1797,1767,1229,1457,  SURF_ID='2'/ 
&OBST XB= -3240,-3210,1767,1737,1229,1455,  SURF_ID='2'/ 
&OBST XB= -3240,-3210,1737,1707,1229,1449,  SURF_ID='2'/ 
&OBST XB= -3240,-3210,1707,1677,1229,1423,  SURF_ID='2'/ 
&OBST XB= -3240,-3210,1677,1647,1229,1410,  SURF_ID='5'/ 
&OBST XB= -3240,-3210,1647,1617,1229,1410,  SURF_ID='5'/ 
&OBST XB= -3240,-3210,1617,1587,1229,1419,  SURF_ID='5'/ 
&OBST XB= -3240,-3210,1587,1557,1229,1430,  SURF_ID='2'/ 
&OBST XB= -3240,-3210,1557,1527,1229,1444,  SURF_ID='2'/ 
&OBST XB= -3240,-3210,1527,1497,1229,1462,  SURF_ID='2'/ 
&OBST XB= -3240,-3210,1497,1467,1229,1478,  SURF_ID='2'/ 
&OBST XB= -3240,-3210,1467,1437,1229,1500,  SURF_ID='2'/ 
&OBST XB= -3240,-3210,1437,1407,1229,1500,  SURF_ID='2'/ 
&OBST XB= -3240,-3210,1407,1377,1229,1512,  SURF_ID='9'/ 
&OBST XB= -3240,-3210,1377,1347,1229,1520,  SURF_ID='2'/ 
&OBST XB= -3240,-3210,1347,1317,1229,1526,  SURF_ID='2'/ 
&OBST XB= -3240,-3210,1317,1287,1229,1523,  SURF_ID='2'/ 
&OBST XB= -3240,-3210,1287,1257,1229,1535,  SURF_ID='5'/ 
&OBST XB= -3240,-3210,1257,1227,1229,1552,  SURF_ID='2'/ 
&OBST XB= -3240,-3210,1227,1197,1229,1552,  SURF_ID='2'/ 
&OBST XB= -3240,-3210,1197,1167,1229,1562,  SURF_ID='2'/ 
&OBST XB= -3240,-3210,1167,1137,1229,1582,  SURF_ID='2'/ 
&OBST XB= -3240,-3210,1137,1107,1229,1591,  SURF_ID='2'/ 
&OBST XB= -3240,-3210,1107,1077,1229,1597,  SURF_ID='9'/ 
&OBST XB= -3240,-3210,1077,1047,1229,1602,  SURF_ID='5'/ 
&OBST XB= -3240,-3210,1047,1017,1229,1605,  SURF_ID='2'/ 
&OBST XB= -3240,-3210,1017,987,1229,1605,  SURF_ID='2'/ 
&OBST XB= -3240,-3210,987,957,1229,1610,  SURF_ID='2'/ 
&OBST XB= -3240,-3210,957,927,1229,1611,  SURF_ID='2'/ 
&OBST XB= -3240,-3210,927,897,1229,1607,  SURF_ID='2'/ 
&OBST XB= -3240,-3210,897,867,1229,1599,  SURF_ID='2'/ 
&OBST XB= -3240,-3210,867,837,1229,1586,  SURF_ID='2'/ 
&OBST XB= -3240,-3210,837,807,1229,1578,  SURF_ID='2'/ 
&OBST XB= -3240,-3210,807,777,1229,1578,  SURF_ID='2'/ 
&OBST XB= -3240,-3210,777,747,1229,1561,  SURF_ID='2'/ 
&OBST XB= -3240,-3210,747,717,1229,1553,  SURF_ID='2'/ 
&OBST XB= -3240,-3210,717,687,1229,1544,  SURF_ID='2'/ 
&OBST XB= -3240,-3210,687,657,1229,1533,  SURF_ID='2'/ 
&OBST XB= -3240,-3210,657,627,1229,1524,  SURF_ID='8'/ 
&OBST XB= -3240,-3210,627,597,1229,1516,  SURF_ID='2'/ 
&OBST XB= -3240,-3210,597,567,1229,1516,  SURF_ID='2'/ 
&OBST XB= -3240,-3210,567,537,1229,1507,  SURF_ID='2'/ 
&OBST XB= -3240,-3210,537,507,1229,1501,  SURF_ID='2'/ 
&OBST XB= -3240,-3210,507,477,1229,1496,  SURF_ID='2'/ 
&OBST XB= -3240,-3210,477,447,1229,1488,  SURF_ID='2'/ 
&OBST XB= -3240,-3210,447,417,1229,1478,  SURF_ID='2'/ 
&OBST XB= -3240,-3210,417,387,1229,1462,  SURF_ID='2'/ 
&OBST XB= -3240,-3210,387,357,1229,1462,  SURF_ID='2'/ 
&OBST XB= -3240,-3210,357,327,1229,1473,  SURF_ID='2'/ 
&OBST XB= -3240,-3210,327,297,1229,1504,  SURF_ID='2'/ 
&OBST XB= -3240,-3210,297,267,1229,1514,  SURF_ID='8'/ 
&OBST XB= -3240,-3210,267,237,1229,1524,  SURF_ID='2'/ 
&OBST XB= -3240,-3210,237,207,1229,1530,  SURF_ID='2'/ 
&OBST XB= -3240,-3210,207,177,1229,1537,  SURF_ID='2'/ 
&OBST XB= -3240,-3210,177,147,1229,1537,  SURF_ID='2'/ 
&OBST XB= -3240,-3210,147,117,1229,1545,  SURF_ID='2'/ 
&OBST XB= -3240,-3210,117,87,1229,1553,  SURF_ID='2'/ 
&OBST XB= -3240,-3210,87,57,1229,1568,  SURF_ID='2'/ 
&OBST XB= -3240,-3210,57,27,1229,1573,  SURF_ID='2'/ 
&OBST XB= -3240,-3210,27,-3,1229,1574,  SURF_ID='2'/ 
&OBST XB= -3240,-3210,-3,-33,1229,1573,  SURF_ID='2'/ 
&OBST XB= -3240,-3210,-33,-63,1229,1573,  SURF_ID='2'/ 
&OBST XB= -3240,-3210,-63,-93,1229,1565,  SURF_ID='2'/ 
&OBST XB= -3240,-3210,-93,-123,1229,1559,  SURF_ID='2'/ 
&OBST XB= -3240,-3210,-123,-153,1229,1551,  SURF_ID='2'/ 
&OBST XB= -3240,-3210,-153,-183,1229,1540,  SURF_ID='2'/ 
&OBST XB= -3240,-3210,-183,-213,1229,1538,  SURF_ID='2'/ 
&OBST XB= -3240,-3210,-213,-243,1229,1534,  SURF_ID='2'/ 
&OBST XB= -3240,-3210,-243,-273,1229,1534,  SURF_ID='2'/ 
&OBST XB= -3240,-3210,-273,-303,1229,1530,  SURF_ID='2'/ 
&OBST XB= -3240,-3210,-303,-333,1229,1525,  SURF_ID='2'/ 
&OBST XB= -3240,-3210,-333,-363,1229,1519,  SURF_ID='8'/ 
&OBST XB= -3240,-3210,-363,-393,1229,1513,  SURF_ID='9'/ 
&OBST XB= -3240,-3210,-393,-423,1229,1506,  SURF_ID='2'/ 
&OBST XB= -3240,-3210,-423,-453,1229,1499,  SURF_ID='9'/ 
&OBST XB= -3240,-3210,-453,-483,1229,1499,  SURF_ID='9'/ 
&OBST XB= -3240,-3210,-483,-513,1229,1492,  SURF_ID='5'/ 
&OBST XB= -3240,-3210,-513,-543,1229,1491,  SURF_ID='2'/ 
&OBST XB= -3240,-3210,-543,-573,1229,1481,  SURF_ID='2'/ 
&OBST XB= -3240,-3210,-573,-603,1229,1471,  SURF_ID='5'/ 
&OBST XB= -3240,-3210,-603,-633,1229,1455,  SURF_ID='5'/ 
&OBST XB= -3240,-3210,-633,-663,1229,1449,  SURF_ID='8'/ 
&OBST XB= -3240,-3210,-663,-693,1229,1449,  SURF_ID='8'/ 
&OBST XB= -3240,-3210,-693,-723,1229,1441,  SURF_ID='2'/ 
&OBST XB= -3240,-3210,-723,-753,1229,1438,  SURF_ID='2'/ 
&OBST XB= -3240,-3210,-753,-783,1229,1434,  SURF_ID='2'/ 
&OBST XB= -3240,-3210,-783,-813,1229,1431,  SURF_ID='2'/ 
&OBST XB= -3240,-3210,-813,-843,1229,1420,  SURF_ID='2'/ 
&OBST XB= -3240,-3210,-843,-873,1229,1418,  SURF_ID='2'/ 
&OBST XB= -3240,-3210,-873,-903,1229,1418,  SURF_ID='2'/ 
&OBST XB= -3240,-3210,-903,-933,1229,1418,  SURF_ID='2'/ 
&OBST XB= -3240,-3210,-933,-963,1229,1418,  SURF_ID='2'/ 
&OBST XB= -3240,-3210,-963,-993,1229,1416,  SURF_ID='2'/ 
&OBST XB= -3240,-3210,-993,-1023,1229,1416,  SURF_ID='2'/ 
&OBST XB= -3240,-3210,-1023,-1053,1229,1416,  SURF_ID='2'/ 
&OBST XB= -3240,-3210,-1053,-1083,1229,1413,  SURF_ID='2'/ 
&OBST XB= -3240,-3210,-1083,-1113,1229,1413,  SURF_ID='2'/ 
&OBST XB= -3240,-3210,-1113,-1143,1229,1403,  SURF_ID='2'/ 
&OBST XB= -3240,-3210,-1143,-1173,1229,1388,  SURF_ID='2'/ 
&OBST XB= -3240,-3210,-1173,-1203,1229,1385,  SURF_ID='2'/ 
&OBST XB= -3240,-3210,-1203,-1233,1229,1385,  SURF_ID='2'/ 
&OBST XB= -3240,-3210,-1233,-1263,1229,1381,  SURF_ID='2'/ 
&OBST XB= -3240,-3210,-1263,-1293,1229,1363,  SURF_ID='2'/ 
&OBST XB= -3240,-3210,-1293,-1323,1229,1363,  SURF_ID='2'/ 
&OBST XB= -3240,-3210,-1323,-1353,1229,1358,  SURF_ID='2'/ 
&OBST XB= -3240,-3210,-1353,-1383,1229,1355,  SURF_ID='2'/ 
&OBST XB= -3240,-3210,-1383,-1413,1229,1350,  SURF_ID='2'/ 
&OBST XB= -3240,-3210,-1413,-1443,1229,1345,  SURF_ID='2'/ 
&OBST XB= -3240,-3210,-1443,-1473,1229,1334,  SURF_ID='2'/ 
&OBST XB= -3240,-3210,-1473,-1503,1229,1335,  SURF_ID='2'/ 
&OBST XB= -3240,-3210,-1503,-1533,1229,1335,  SURF_ID='2'/ 
&OBST XB= -3240,-3210,-1533,-1563,1229,1331,  SURF_ID='9'/ 
&OBST XB= -3240,-3210,-1563,-1593,1229,1322,  SURF_ID='5'/ 
&OBST XB= -3240,-3210,-1593,-1623,1229,1325,  SURF_ID='2'/ 
&OBST XB= -3240,-3210,-1623,-1653,1229,1310,  SURF_ID='5'/ 
&OBST XB= -3240,-3210,-1653,-1683,1229,1298,  SURF_ID='2'/ 
&OBST XB= -3240,-3210,-1683,-1713,1229,1292,  SURF_ID='8'/ 
&OBST XB= -3240,-3210,-1713,-1743,1229,1292,  SURF_ID='8'/ 
&OBST XB= -3240,-3210,-1743,-1773,1229,1289,  SURF_ID='2'/ 
&OBST XB= -3240,-3210,-1773,-1803,1229,1281,  SURF_ID='2'/ 
&OBST XB= -3240,-3210,-1803,-1833,1229,1284,  SURF_ID='2'/ 
&OBST XB= -3240,-3210,-1833,-1863,1229,1291,  SURF_ID='2'/ 
&OBST XB= -3240,-3210,-1863,-1893,1229,1298,  SURF_ID='2'/ 
&OBST XB= -3240,-3210,-1893,-1923,1229,1284,  SURF_ID='2'/ 
&OBST XB= -3240,-3210,-1923,-1953,1229,1284,  SURF_ID='2'/ 
&OBST XB= -3240,-3210,-1953,-1983,1229,1288,  SURF_ID='2'/ 
&OBST XB= -3240,-3210,-1983,-2013,1229,1286,  SURF_ID='2'/ 
&OBST XB= -3240,-3210,-2013,-2043,1229,1271,  SURF_ID='2'/ 
&OBST XB= -3240,-3210,-2043,-2073,1229,1251,  SURF_ID='2'/ 
&OBST XB= -3240,-3210,-2073,-2103,1229,1244,  SURF_ID='9'/ 
&OBST XB= -3240,-3210,-2103,-2133,1229,1248,  SURF_ID='9'/ 
&OBST XB= -3240,-3210,-2133,-2163,1229,1248,  SURF_ID='9'/ 
&OBST XB= -3240,-3210,-2163,-2193,1229,1259,  SURF_ID='9'/ 
&OBST XB= -3240,-3210,-2193,-2223,1229,1279,  SURF_ID='2'/ 
&OBST XB= -3240,-3210,-2223,-2253,1229,1289,  SURF_ID='2'/ 
&OBST XB= -3240,-3210,-2253,-2283,1229,1288,  SURF_ID='2'/ 
&OBST XB= -3240,-3210,-2283,-2313,1229,1288,  SURF_ID='2'/ 
&OBST XB= -3240,-3210,-2313,-2343,1229,1294,  SURF_ID='2'/ 
&OBST XB= -3240,-3210,-2343,-2373,1229,1294,  SURF_ID='2'/ 
&OBST XB= -3240,-3210,-2373,-2403,1229,1288,  SURF_ID='2'/ 
&OBST XB= -3240,-3210,-2403,-2433,1229,1283,  SURF_ID='2'/ 
&OBST XB= -3240,-3210,-2433,-2463,1229,1260,  SURF_ID='8'/ 
&OBST XB= -3240,-3210,-2463,-2493,1229,1246,  SURF_ID='8'/ 
&OBST XB= -3240,-3210,-2493,-2523,1229,1235,  SURF_ID='0'/ 
&OBST XB= -3240,-3210,-2523,-2553,1229,1235,  SURF_ID='0'/ 
&OBST XB= -3240,-3210,-2553,-2583,1229,1235,  SURF_ID='0'/ 
&OBST XB= -3240,-3210,-2583,-2613,1229,1235,  SURF_ID='2'/ 
&OBST XB= -3240,-3210,-2613,-2643,1229,1245,  SURF_ID='2'/ 
&OBST XB= -3240,-3210,-2643,-2673,1229,1261,  SURF_ID='9'/ 
&OBST XB= -3240,-3210,-2673,-2703,1229,1300,  SURF_ID='9'/ 
&OBST XB= -3240,-3210,-2703,-2733,1229,1309,  SURF_ID='2'/ 
&OBST XB= -3240,-3210,-2733,-2763,1229,1314,  SURF_ID='2'/ 
&OBST XB= -3240,-3210,-2763,-2793,1229,1314,  SURF_ID='2'/ 
&OBST XB= -3240,-3210,-2793,-2823,1229,1320,  SURF_ID='2'/ 
&OBST XB= -3240,-3210,-2823,-2853,1229,1339,  SURF_ID='2'/ 
&OBST XB= -3240,-3210,-2853,-2883,1229,1344,  SURF_ID='2'/ 
&OBST XB= -3240,-3210,-2883,-2913,1229,1354,  SURF_ID='2'/ 
&OBST XB= -3240,-3210,-2913,-2943,1229,1358,  SURF_ID='9'/ 
&OBST XB= -3240,-3210,-2943,-2973,1229,1361,  SURF_ID='9'/ 
&OBST XB= -3240,-3210,-2973,-3003,1229,1361,  SURF_ID='9'/ 
&OBST XB= -3240,-3210,-3003,-3033,1229,1381,  SURF_ID='9'/ 
&OBST XB= -3240,-3210,-3033,-3063,1229,1386,  SURF_ID='9'/ 
&OBST XB= -3240,-3210,-3063,-3093,1229,1394,  SURF_ID='9'/ 
&OBST XB= -3240,-3210,-3093,-3123,1229,1405,  SURF_ID='9'/ 
&OBST XB= -3240,-3210,-3123,-3153,1229,1439,  SURF_ID='2'/ 
&OBST XB= -3240,-3210,-3153,-3183,1229,1447,  SURF_ID='2'/ 
&OBST XB= -3240,-3210,-3183,-3213,1229,1447,  SURF_ID='2'/ 
&OBST XB= -3240,-3210,-3213,-3243,1229,1446,  SURF_ID='2'/ 
&OBST XB= -3210,-3180,3237,3207,1229,1412,  SURF_ID='5'/ 
&OBST XB= -3210,-3180,3207,3177,1229,1425,  SURF_ID='8'/ 
&OBST XB= -3210,-3180,3177,3147,1229,1415,  SURF_ID='5'/ 
&OBST XB= -3210,-3180,3147,3117,1229,1405,  SURF_ID='2'/ 
&OBST XB= -3210,-3180,3117,3087,1229,1405,  SURF_ID='2'/ 
&OBST XB= -3210,-3180,3087,3057,1229,1393,  SURF_ID='2'/ 
&OBST XB= -3210,-3180,3057,3027,1229,1377,  SURF_ID='2'/ 
&OBST XB= -3210,-3180,3027,2997,1229,1376,  SURF_ID='5'/ 
&OBST XB= -3210,-3180,2997,2967,1229,1398,  SURF_ID='5'/ 
&OBST XB= -3210,-3180,2967,2937,1229,1410,  SURF_ID='5'/ 
&OBST XB= -3210,-3180,2937,2907,1229,1420,  SURF_ID='5'/ 
&OBST XB= -3210,-3180,2907,2877,1229,1420,  SURF_ID='5'/ 
&OBST XB= -3210,-3180,2877,2847,1229,1442,  SURF_ID='5'/ 
&OBST XB= -3210,-3180,2847,2817,1229,1449,  SURF_ID='2'/ 
&OBST XB= -3210,-3180,2817,2787,1229,1456,  SURF_ID='2'/ 
&OBST XB= -3210,-3180,2787,2757,1229,1478,  SURF_ID='2'/ 
&OBST XB= -3210,-3180,2757,2727,1229,1476,  SURF_ID='9'/ 
&OBST XB= -3210,-3180,2727,2697,1229,1474,  SURF_ID='9'/ 
&OBST XB= -3210,-3180,2697,2667,1229,1474,  SURF_ID='9'/ 
&OBST XB= -3210,-3180,2667,2637,1229,1470,  SURF_ID='2'/ 
&OBST XB= -3210,-3180,2637,2607,1229,1465,  SURF_ID='2'/ 
&OBST XB= -3210,-3180,2607,2577,1229,1458,  SURF_ID='2'/ 
&OBST XB= -3210,-3180,2577,2547,1229,1432,  SURF_ID='2'/ 
&OBST XB= -3210,-3180,2547,2517,1229,1444,  SURF_ID='2'/ 
&OBST XB= -3210,-3180,2517,2487,1229,1456,  SURF_ID='2'/ 
&OBST XB= -3210,-3180,2487,2457,1229,1456,  SURF_ID='2'/ 
&OBST XB= -3210,-3180,2457,2427,1229,1468,  SURF_ID='2'/ 
&OBST XB= -3210,-3180,2427,2397,1229,1465,  SURF_ID='2'/ 
&OBST XB= -3210,-3180,2397,2367,1229,1470,  SURF_ID='2'/ 
&OBST XB= -3210,-3180,2367,2337,1229,1472,  SURF_ID='2'/ 
&OBST XB= -3210,-3180,2337,2307,1229,1471,  SURF_ID='2'/ 
&OBST XB= -3210,-3180,2307,2277,1229,1461,  SURF_ID='2'/ 
&OBST XB= -3210,-3180,2277,2247,1229,1461,  SURF_ID='2'/ 
&OBST XB= -3210,-3180,2247,2217,1229,1459,  SURF_ID='2'/ 
&OBST XB= -3210,-3180,2217,2187,1229,1454,  SURF_ID='2'/ 
&OBST XB= -3210,-3180,2187,2157,1229,1446,  SURF_ID='9'/ 
&OBST XB= -3210,-3180,2157,2127,1229,1437,  SURF_ID='2'/ 
&OBST XB= -3210,-3180,2127,2097,1229,1413,  SURF_ID='8'/ 
&OBST XB= -3210,-3180,2097,2067,1229,1421,  SURF_ID='2'/ 
&OBST XB= -3210,-3180,2067,2037,1229,1421,  SURF_ID='2'/ 
&OBST XB= -3210,-3180,2037,2007,1229,1430,  SURF_ID='2'/ 
&OBST XB= -3210,-3180,2007,1977,1229,1436,  SURF_ID='2'/ 
&OBST XB= -3210,-3180,1977,1947,1229,1426,  SURF_ID='2'/ 
&OBST XB= -3210,-3180,1947,1917,1229,1430,  SURF_ID='2'/ 
&OBST XB= -3210,-3180,1917,1887,1229,1435,  SURF_ID='2'/ 
&OBST XB= -3210,-3180,1887,1857,1229,1447,  SURF_ID='2'/ 
&OBST XB= -3210,-3180,1857,1827,1229,1447,  SURF_ID='2'/ 
&OBST XB= -3210,-3180,1827,1797,1229,1454,  SURF_ID='2'/ 
&OBST XB= -3210,-3180,1797,1767,1229,1440,  SURF_ID='2'/ 
&OBST XB= -3210,-3180,1767,1737,1229,1439,  SURF_ID='2'/ 
&OBST XB= -3210,-3180,1737,1707,1229,1434,  SURF_ID='2'/ 
&OBST XB= -3210,-3180,1707,1677,1229,1423,  SURF_ID='2'/ 
&OBST XB= -3210,-3180,1677,1647,1229,1407,  SURF_ID='5'/ 
&OBST XB= -3210,-3180,1647,1617,1229,1407,  SURF_ID='5'/ 
&OBST XB= -3210,-3180,1617,1587,1229,1434,  SURF_ID='5'/ 
&OBST XB= -3210,-3180,1587,1557,1229,1439,  SURF_ID='5'/ 
&OBST XB= -3210,-3180,1557,1527,1229,1445,  SURF_ID='9'/ 
&OBST XB= -3210,-3180,1527,1497,1229,1460,  SURF_ID='5'/ 
&OBST XB= -3210,-3180,1497,1467,1229,1465,  SURF_ID='9'/ 
&OBST XB= -3210,-3180,1467,1437,1229,1478,  SURF_ID='9'/ 
&OBST XB= -3210,-3180,1437,1407,1229,1478,  SURF_ID='9'/ 
&OBST XB= -3210,-3180,1407,1377,1229,1498,  SURF_ID='2'/ 
&OBST XB= -3210,-3180,1377,1347,1229,1509,  SURF_ID='2'/ 
&OBST XB= -3210,-3180,1347,1317,1229,1520,  SURF_ID='5'/ 
&OBST XB= -3210,-3180,1317,1287,1229,1535,  SURF_ID='8'/ 
&OBST XB= -3210,-3180,1287,1257,1229,1545,  SURF_ID='5'/ 
&OBST XB= -3210,-3180,1257,1227,1229,1555,  SURF_ID='2'/ 
&OBST XB= -3210,-3180,1227,1197,1229,1555,  SURF_ID='2'/ 
&OBST XB= -3210,-3180,1197,1167,1229,1570,  SURF_ID='2'/ 
&OBST XB= -3210,-3180,1167,1137,1229,1587,  SURF_ID='5'/ 
&OBST XB= -3210,-3180,1137,1107,1229,1594,  SURF_ID='2'/ 
&OBST XB= -3210,-3180,1107,1077,1229,1599,  SURF_ID='9'/ 
&OBST XB= -3210,-3180,1077,1047,1229,1602,  SURF_ID='2'/ 
&OBST XB= -3210,-3180,1047,1017,1229,1601,  SURF_ID='2'/ 
&OBST XB= -3210,-3180,1017,987,1229,1601,  SURF_ID='2'/ 
&OBST XB= -3210,-3180,987,957,1229,1600,  SURF_ID='2'/ 
&OBST XB= -3210,-3180,957,927,1229,1604,  SURF_ID='2'/ 
&OBST XB= -3210,-3180,927,897,1229,1601,  SURF_ID='2'/ 
&OBST XB= -3210,-3180,897,867,1229,1591,  SURF_ID='2'/ 
&OBST XB= -3210,-3180,867,837,1229,1584,  SURF_ID='2'/ 
&OBST XB= -3210,-3180,837,807,1229,1576,  SURF_ID='2'/ 
&OBST XB= -3210,-3180,807,777,1229,1576,  SURF_ID='2'/ 
&OBST XB= -3210,-3180,777,747,1229,1569,  SURF_ID='2'/ 
&OBST XB= -3210,-3180,747,717,1229,1557,  SURF_ID='2'/ 
&OBST XB= -3210,-3180,717,687,1229,1541,  SURF_ID='2'/ 
&OBST XB= -3210,-3180,687,657,1229,1533,  SURF_ID='2'/ 
&OBST XB= -3210,-3180,657,627,1229,1526,  SURF_ID='8'/ 
&OBST XB= -3210,-3180,627,597,1229,1515,  SURF_ID='2'/ 
&OBST XB= -3210,-3180,597,567,1229,1515,  SURF_ID='2'/ 
&OBST XB= -3210,-3180,567,537,1229,1509,  SURF_ID='2'/ 
&OBST XB= -3210,-3180,537,507,1229,1500,  SURF_ID='2'/ 
&OBST XB= -3210,-3180,507,477,1229,1486,  SURF_ID='2'/ 
&OBST XB= -3210,-3180,477,447,1229,1479,  SURF_ID='2'/ 
&OBST XB= -3210,-3180,447,417,1229,1463,  SURF_ID='9'/ 
&OBST XB= -3210,-3180,417,387,1229,1460,  SURF_ID='9'/ 
&OBST XB= -3210,-3180,387,357,1229,1460,  SURF_ID='9'/ 
&OBST XB= -3210,-3180,357,327,1229,1473,  SURF_ID='9'/ 
&OBST XB= -3210,-3180,327,297,1229,1492,  SURF_ID='2'/ 
&OBST XB= -3210,-3180,297,267,1229,1505,  SURF_ID='0'/ 
&OBST XB= -3210,-3180,267,237,1229,1522,  SURF_ID='2'/ 
&OBST XB= -3210,-3180,237,207,1229,1530,  SURF_ID='2'/ 
&OBST XB= -3210,-3180,207,177,1229,1538,  SURF_ID='2'/ 
&OBST XB= -3210,-3180,177,147,1229,1538,  SURF_ID='2'/ 
&OBST XB= -3210,-3180,147,117,1229,1546,  SURF_ID='2'/ 
&OBST XB= -3210,-3180,117,87,1229,1553,  SURF_ID='2'/ 
&OBST XB= -3210,-3180,87,57,1229,1561,  SURF_ID='2'/ 
&OBST XB= -3210,-3180,57,27,1229,1568,  SURF_ID='2'/ 
&OBST XB= -3210,-3180,27,-3,1229,1572,  SURF_ID='2'/ 
&OBST XB= -3210,-3180,-3,-33,1229,1566,  SURF_ID='2'/ 
&OBST XB= -3210,-3180,-33,-63,1229,1566,  SURF_ID='2'/ 
&OBST XB= -3210,-3180,-63,-93,1229,1560,  SURF_ID='2'/ 
&OBST XB= -3210,-3180,-93,-123,1229,1556,  SURF_ID='2'/ 
&OBST XB= -3210,-3180,-123,-153,1229,1551,  SURF_ID='2'/ 
&OBST XB= -3210,-3180,-153,-183,1229,1547,  SURF_ID='2'/ 
&OBST XB= -3210,-3180,-183,-213,1229,1536,  SURF_ID='2'/ 
&OBST XB= -3210,-3180,-213,-243,1229,1533,  SURF_ID='2'/ 
&OBST XB= -3210,-3180,-243,-273,1229,1533,  SURF_ID='2'/ 
&OBST XB= -3210,-3180,-273,-303,1229,1531,  SURF_ID='5'/ 
&OBST XB= -3210,-3180,-303,-333,1229,1527,  SURF_ID='2'/ 
&OBST XB= -3210,-3180,-333,-363,1229,1523,  SURF_ID='2'/ 
&OBST XB= -3210,-3180,-363,-393,1229,1520,  SURF_ID='2'/ 
&OBST XB= -3210,-3180,-393,-423,1229,1517,  SURF_ID='2'/ 
&OBST XB= -3210,-3180,-423,-453,1229,1503,  SURF_ID='2'/ 
&OBST XB= -3210,-3180,-453,-483,1229,1503,  SURF_ID='2'/ 
&OBST XB= -3210,-3180,-483,-513,1229,1497,  SURF_ID='2'/ 
&OBST XB= -3210,-3180,-513,-543,1229,1493,  SURF_ID='2'/ 
&OBST XB= -3210,-3180,-543,-573,1229,1486,  SURF_ID='2'/ 
&OBST XB= -3210,-3180,-573,-603,1229,1475,  SURF_ID='2'/ 
&OBST XB= -3210,-3180,-603,-633,1229,1464,  SURF_ID='5'/ 
&OBST XB= -3210,-3180,-633,-663,1229,1440,  SURF_ID='2'/ 
&OBST XB= -3210,-3180,-663,-693,1229,1440,  SURF_ID='2'/ 
&OBST XB= -3210,-3180,-693,-723,1229,1435,  SURF_ID='2'/ 
&OBST XB= -3210,-3180,-723,-753,1229,1430,  SURF_ID='2'/ 
&OBST XB= -3210,-3180,-753,-783,1229,1428,  SURF_ID='0'/ 
&OBST XB= -3210,-3180,-783,-813,1229,1415,  SURF_ID='2'/ 
&OBST XB= -3210,-3180,-813,-843,1229,1413,  SURF_ID='2'/ 
&OBST XB= -3210,-3180,-843,-873,1229,1410,  SURF_ID='2'/ 
&OBST XB= -3210,-3180,-873,-903,1229,1410,  SURF_ID='2'/ 
&OBST XB= -3210,-3180,-903,-933,1229,1410,  SURF_ID='2'/ 
&OBST XB= -3210,-3180,-933,-963,1229,1415,  SURF_ID='2'/ 
&OBST XB= -3210,-3180,-963,-993,1229,1404,  SURF_ID='2'/ 
&OBST XB= -3210,-3180,-993,-1023,1229,1405,  SURF_ID='2'/ 
&OBST XB= -3210,-3180,-1023,-1053,1229,1409,  SURF_ID='2'/ 
&OBST XB= -3210,-3180,-1053,-1083,1229,1411,  SURF_ID='2'/ 
&OBST XB= -3210,-3180,-1083,-1113,1229,1411,  SURF_ID='2'/ 
&OBST XB= -3210,-3180,-1113,-1143,1229,1389,  SURF_ID='2'/ 
&OBST XB= -3210,-3180,-1143,-1173,1229,1380,  SURF_ID='2'/ 
&OBST XB= -3210,-3180,-1173,-1203,1229,1372,  SURF_ID='9'/ 
&OBST XB= -3210,-3180,-1203,-1233,1229,1370,  SURF_ID='2'/ 
&OBST XB= -3210,-3180,-1233,-1263,1229,1370,  SURF_ID='2'/ 
&OBST XB= -3210,-3180,-1263,-1293,1229,1357,  SURF_ID='2'/ 
&OBST XB= -3210,-3180,-1293,-1323,1229,1357,  SURF_ID='2'/ 
&OBST XB= -3210,-3180,-1323,-1353,1229,1353,  SURF_ID='2'/ 
&OBST XB= -3210,-3180,-1353,-1383,1229,1344,  SURF_ID='2'/ 
&OBST XB= -3210,-3180,-1383,-1413,1229,1340,  SURF_ID='2'/ 
&OBST XB= -3210,-3180,-1413,-1443,1229,1326,  SURF_ID='2'/ 
&OBST XB= -3210,-3180,-1443,-1473,1229,1322,  SURF_ID='2'/ 
&OBST XB= -3210,-3180,-1473,-1503,1229,1321,  SURF_ID='2'/ 
&OBST XB= -3210,-3180,-1503,-1533,1229,1321,  SURF_ID='2'/ 
&OBST XB= -3210,-3180,-1533,-1563,1229,1327,  SURF_ID='2'/ 
&OBST XB= -3210,-3180,-1563,-1593,1229,1323,  SURF_ID='2'/ 
&OBST XB= -3210,-3180,-1593,-1623,1229,1323,  SURF_ID='2'/ 
&OBST XB= -3210,-3180,-1623,-1653,1229,1317,  SURF_ID='2'/ 
&OBST XB= -3210,-3180,-1653,-1683,1229,1308,  SURF_ID='2'/ 
&OBST XB= -3210,-3180,-1683,-1713,1229,1298,  SURF_ID='8'/ 
&OBST XB= -3210,-3180,-1713,-1743,1229,1298,  SURF_ID='8'/ 
&OBST XB= -3210,-3180,-1743,-1773,1229,1297,  SURF_ID='2'/ 
&OBST XB= -3210,-3180,-1773,-1803,1229,1292,  SURF_ID='2'/ 
&OBST XB= -3210,-3180,-1803,-1833,1229,1275,  SURF_ID='2'/ 
&OBST XB= -3210,-3180,-1833,-1863,1229,1271,  SURF_ID='2'/ 
&OBST XB= -3210,-3180,-1863,-1893,1229,1262,  SURF_ID='8'/ 
&OBST XB= -3210,-3180,-1893,-1923,1229,1264,  SURF_ID='2'/ 
&OBST XB= -3210,-3180,-1923,-1953,1229,1264,  SURF_ID='2'/ 
&OBST XB= -3210,-3180,-1953,-1983,1229,1271,  SURF_ID='2'/ 
&OBST XB= -3210,-3180,-1983,-2013,1229,1275,  SURF_ID='2'/ 
&OBST XB= -3210,-3180,-2013,-2043,1229,1275,  SURF_ID='2'/ 
&OBST XB= -3210,-3180,-2043,-2073,1229,1247,  SURF_ID='2'/ 
&OBST XB= -3210,-3180,-2073,-2103,1229,1242,  SURF_ID='9'/ 
&OBST XB= -3210,-3180,-2103,-2133,1229,1245,  SURF_ID='9'/ 
&OBST XB= -3210,-3180,-2133,-2163,1229,1245,  SURF_ID='9'/ 
&OBST XB= -3210,-3180,-2163,-2193,1229,1257,  SURF_ID='2'/ 
&OBST XB= -3210,-3180,-2193,-2223,1229,1269,  SURF_ID='2'/ 
&OBST XB= -3210,-3180,-2223,-2253,1229,1277,  SURF_ID='2'/ 
&OBST XB= -3210,-3180,-2253,-2283,1229,1274,  SURF_ID='2'/ 
&OBST XB= -3210,-3180,-2283,-2313,1229,1277,  SURF_ID='2'/ 
&OBST XB= -3210,-3180,-2313,-2343,1229,1275,  SURF_ID='2'/ 
&OBST XB= -3210,-3180,-2343,-2373,1229,1275,  SURF_ID='2'/ 
&OBST XB= -3210,-3180,-2373,-2403,1229,1278,  SURF_ID='2'/ 
&OBST XB= -3210,-3180,-2403,-2433,1229,1276,  SURF_ID='2'/ 
&OBST XB= -3210,-3180,-2433,-2463,1229,1266,  SURF_ID='9'/ 
&OBST XB= -3210,-3180,-2463,-2493,1229,1252,  SURF_ID='9'/ 
&OBST XB= -3210,-3180,-2493,-2523,1229,1235,  SURF_ID='2'/ 
&OBST XB= -3210,-3180,-2523,-2553,1229,1235,  SURF_ID='0'/ 
&OBST XB= -3210,-3180,-2553,-2583,1229,1235,  SURF_ID='0'/ 
&OBST XB= -3210,-3180,-2583,-2613,1229,1235,  SURF_ID='2'/ 
&OBST XB= -3210,-3180,-2613,-2643,1229,1247,  SURF_ID='5'/ 
&OBST XB= -3210,-3180,-2643,-2673,1229,1271,  SURF_ID='2'/ 
&OBST XB= -3210,-3180,-2673,-2703,1229,1290,  SURF_ID='9'/ 
&OBST XB= -3210,-3180,-2703,-2733,1229,1321,  SURF_ID='2'/ 
&OBST XB= -3210,-3180,-2733,-2763,1229,1330,  SURF_ID='2'/ 
&OBST XB= -3210,-3180,-2763,-2793,1229,1330,  SURF_ID='2'/ 
&OBST XB= -3210,-3180,-2793,-2823,1229,1335,  SURF_ID='2'/ 
&OBST XB= -3210,-3180,-2823,-2853,1229,1355,  SURF_ID='2'/ 
&OBST XB= -3210,-3180,-2853,-2883,1229,1360,  SURF_ID='2'/ 
&OBST XB= -3210,-3180,-2883,-2913,1229,1365,  SURF_ID='2'/ 
&OBST XB= -3210,-3180,-2913,-2943,1229,1369,  SURF_ID='2'/ 
&OBST XB= -3210,-3180,-2943,-2973,1229,1393,  SURF_ID='2'/ 
&OBST XB= -3210,-3180,-2973,-3003,1229,1393,  SURF_ID='2'/ 
&OBST XB= -3210,-3180,-3003,-3033,1229,1400,  SURF_ID='9'/ 
&OBST XB= -3210,-3180,-3033,-3063,1229,1404,  SURF_ID='9'/ 
&OBST XB= -3210,-3180,-3063,-3093,1229,1409,  SURF_ID='2'/ 
&OBST XB= -3210,-3180,-3093,-3123,1229,1429,  SURF_ID='2'/ 
&OBST XB= -3210,-3180,-3123,-3153,1229,1441,  SURF_ID='2'/ 
&OBST XB= -3210,-3180,-3153,-3183,1229,1458,  SURF_ID='2'/ 
&OBST XB= -3210,-3180,-3183,-3213,1229,1458,  SURF_ID='2'/ 
&OBST XB= -3210,-3180,-3213,-3243,1229,1459,  SURF_ID='2'/ 
&OBST XB= -3180,-3150,3237,3207,1229,1441,  SURF_ID='8'/ 
&OBST XB= -3180,-3150,3207,3177,1229,1429,  SURF_ID='9'/ 
&OBST XB= -3180,-3150,3177,3147,1229,1414,  SURF_ID='2'/ 
&OBST XB= -3180,-3150,3147,3117,1229,1403,  SURF_ID='9'/ 
&OBST XB= -3180,-3150,3117,3087,1229,1403,  SURF_ID='9'/ 
&OBST XB= -3180,-3150,3087,3057,1229,1389,  SURF_ID='2'/ 
&OBST XB= -3180,-3150,3057,3027,1229,1383,  SURF_ID='5'/ 
&OBST XB= -3180,-3150,3027,2997,1229,1370,  SURF_ID='2'/ 
&OBST XB= -3180,-3150,2997,2967,1229,1383,  SURF_ID='2'/ 
&OBST XB= -3180,-3150,2967,2937,1229,1418,  SURF_ID='5'/ 
&OBST XB= -3180,-3150,2937,2907,1229,1431,  SURF_ID='9'/ 
&OBST XB= -3180,-3150,2907,2877,1229,1431,  SURF_ID='9'/ 
&OBST XB= -3180,-3150,2877,2847,1229,1434,  SURF_ID='9'/ 
&OBST XB= -3180,-3150,2847,2817,1229,1439,  SURF_ID='9'/ 
&OBST XB= -3180,-3150,2817,2787,1229,1454,  SURF_ID='2'/ 
&OBST XB= -3180,-3150,2787,2757,1229,1465,  SURF_ID='2'/ 
&OBST XB= -3180,-3150,2757,2727,1229,1478,  SURF_ID='2'/ 
&OBST XB= -3180,-3150,2727,2697,1229,1476,  SURF_ID='2'/ 
&OBST XB= -3180,-3150,2697,2667,1229,1476,  SURF_ID='2'/ 
&OBST XB= -3180,-3150,2667,2637,1229,1473,  SURF_ID='2'/ 
&OBST XB= -3180,-3150,2637,2607,1229,1468,  SURF_ID='2'/ 
&OBST XB= -3180,-3150,2607,2577,1229,1466,  SURF_ID='2'/ 
&OBST XB= -3180,-3150,2577,2547,1229,1454,  SURF_ID='2'/ 
&OBST XB= -3180,-3150,2547,2517,1229,1433,  SURF_ID='5'/ 
&OBST XB= -3180,-3150,2517,2487,1229,1447,  SURF_ID='2'/ 
&OBST XB= -3180,-3150,2487,2457,1229,1447,  SURF_ID='2'/ 
&OBST XB= -3180,-3150,2457,2427,1229,1448,  SURF_ID='2'/ 
&OBST XB= -3180,-3150,2427,2397,1229,1456,  SURF_ID='2'/ 
&OBST XB= -3180,-3150,2397,2367,1229,1461,  SURF_ID='2'/ 
&OBST XB= -3180,-3150,2367,2337,1229,1464,  SURF_ID='2'/ 
&OBST XB= -3180,-3150,2337,2307,1229,1464,  SURF_ID='2'/ 
&OBST XB= -3180,-3150,2307,2277,1229,1446,  SURF_ID='2'/ 
&OBST XB= -3180,-3150,2277,2247,1229,1446,  SURF_ID='2'/ 
&OBST XB= -3180,-3150,2247,2217,1229,1443,  SURF_ID='2'/ 
&OBST XB= -3180,-3150,2217,2187,1229,1439,  SURF_ID='2'/ 
&OBST XB= -3180,-3150,2187,2157,1229,1436,  SURF_ID='2'/ 
&OBST XB= -3180,-3150,2157,2127,1229,1420,  SURF_ID='8'/ 
&OBST XB= -3180,-3150,2127,2097,1229,1414,  SURF_ID='8'/ 
&OBST XB= -3180,-3150,2097,2067,1229,1411,  SURF_ID='2'/ 
&OBST XB= -3180,-3150,2067,2037,1229,1411,  SURF_ID='2'/ 
&OBST XB= -3180,-3150,2037,2007,1229,1418,  SURF_ID='2'/ 
&OBST XB= -3180,-3150,2007,1977,1229,1423,  SURF_ID='2'/ 
&OBST XB= -3180,-3150,1977,1947,1229,1414,  SURF_ID='2'/ 
&OBST XB= -3180,-3150,1947,1917,1229,1417,  SURF_ID='2'/ 
&OBST XB= -3180,-3150,1917,1887,1229,1421,  SURF_ID='2'/ 
&OBST XB= -3180,-3150,1887,1857,1229,1425,  SURF_ID='2'/ 
&OBST XB= -3180,-3150,1857,1827,1229,1425,  SURF_ID='2'/ 
&OBST XB= -3180,-3150,1827,1797,1229,1418,  SURF_ID='2'/ 
&OBST XB= -3180,-3150,1797,1767,1229,1425,  SURF_ID='2'/ 
&OBST XB= -3180,-3150,1767,1737,1229,1423,  SURF_ID='2'/ 
&OBST XB= -3180,-3150,1737,1707,1229,1418,  SURF_ID='2'/ 
&OBST XB= -3180,-3150,1707,1677,1229,1403,  SURF_ID='9'/ 
&OBST XB= -3180,-3150,1677,1647,1229,1417,  SURF_ID='5'/ 
&OBST XB= -3180,-3150,1647,1617,1229,1417,  SURF_ID='5'/ 
&OBST XB= -3180,-3150,1617,1587,1229,1434,  SURF_ID='8'/ 
&OBST XB= -3180,-3150,1587,1557,1229,1451,  SURF_ID='2'/ 
&OBST XB= -3180,-3150,1557,1527,1229,1455,  SURF_ID='2'/ 
&OBST XB= -3180,-3150,1527,1497,1229,1476,  SURF_ID='2'/ 
&OBST XB= -3180,-3150,1497,1467,1229,1478,  SURF_ID='2'/ 
&OBST XB= -3180,-3150,1467,1437,1229,1483,  SURF_ID='5'/ 
&OBST XB= -3180,-3150,1437,1407,1229,1483,  SURF_ID='5'/ 
&OBST XB= -3180,-3150,1407,1377,1229,1489,  SURF_ID='5'/ 
&OBST XB= -3180,-3150,1377,1347,1229,1508,  SURF_ID='5'/ 
&OBST XB= -3180,-3150,1347,1317,1229,1532,  SURF_ID='8'/ 
&OBST XB= -3180,-3150,1317,1287,1229,1543,  SURF_ID='8'/ 
&OBST XB= -3180,-3150,1287,1257,1229,1553,  SURF_ID='5'/ 
&OBST XB= -3180,-3150,1257,1227,1229,1561,  SURF_ID='9'/ 
&OBST XB= -3180,-3150,1227,1197,1229,1561,  SURF_ID='9'/ 
&OBST XB= -3180,-3150,1197,1167,1229,1575,  SURF_ID='2'/ 
&OBST XB= -3180,-3150,1167,1137,1229,1583,  SURF_ID='9'/ 
&OBST XB= -3180,-3150,1137,1107,1229,1597,  SURF_ID='2'/ 
&OBST XB= -3180,-3150,1107,1077,1229,1600,  SURF_ID='2'/ 
&OBST XB= -3180,-3150,1077,1047,1229,1598,  SURF_ID='2'/ 
&OBST XB= -3180,-3150,1047,1017,1229,1595,  SURF_ID='2'/ 
&OBST XB= -3180,-3150,1017,987,1229,1595,  SURF_ID='2'/ 
&OBST XB= -3180,-3150,987,957,1229,1591,  SURF_ID='2'/ 
&OBST XB= -3180,-3150,957,927,1229,1590,  SURF_ID='2'/ 
&OBST XB= -3180,-3150,927,897,1229,1585,  SURF_ID='2'/ 
&OBST XB= -3180,-3150,897,867,1229,1585,  SURF_ID='2'/ 
&OBST XB= -3180,-3150,867,837,1229,1579,  SURF_ID='2'/ 
&OBST XB= -3180,-3150,837,807,1229,1571,  SURF_ID='2'/ 
&OBST XB= -3180,-3150,807,777,1229,1571,  SURF_ID='2'/ 
&OBST XB= -3180,-3150,777,747,1229,1564,  SURF_ID='2'/ 
&OBST XB= -3180,-3150,747,717,1229,1550,  SURF_ID='2'/ 
&OBST XB= -3180,-3150,717,687,1229,1544,  SURF_ID='2'/ 
&OBST XB= -3180,-3150,687,657,1229,1529,  SURF_ID='2'/ 
&OBST XB= -3180,-3150,657,627,1229,1525,  SURF_ID='2'/ 
&OBST XB= -3180,-3150,627,597,1229,1516,  SURF_ID='2'/ 
&OBST XB= -3180,-3150,597,567,1229,1516,  SURF_ID='2'/ 
&OBST XB= -3180,-3150,567,537,1229,1511,  SURF_ID='2'/ 
&OBST XB= -3180,-3150,537,507,1229,1502,  SURF_ID='2'/ 
&OBST XB= -3180,-3150,507,477,1229,1493,  SURF_ID='2'/ 
&OBST XB= -3180,-3150,477,447,1229,1485,  SURF_ID='2'/ 
&OBST XB= -3180,-3150,447,417,1229,1459,  SURF_ID='8'/ 
&OBST XB= -3180,-3150,417,387,1229,1459,  SURF_ID='8'/ 
&OBST XB= -3180,-3150,387,357,1229,1459,  SURF_ID='8'/ 
&OBST XB= -3180,-3150,357,327,1229,1473,  SURF_ID='9'/ 
&OBST XB= -3180,-3150,327,297,1229,1492,  SURF_ID='5'/ 
&OBST XB= -3180,-3150,297,267,1229,1500,  SURF_ID='2'/ 
&OBST XB= -3180,-3150,267,237,1229,1508,  SURF_ID='2'/ 
&OBST XB= -3180,-3150,237,207,1229,1528,  SURF_ID='2'/ 
&OBST XB= -3180,-3150,207,177,1229,1538,  SURF_ID='2'/ 
&OBST XB= -3180,-3150,177,147,1229,1538,  SURF_ID='2'/ 
&OBST XB= -3180,-3150,147,117,1229,1545,  SURF_ID='2'/ 
&OBST XB= -3180,-3150,117,87,1229,1553,  SURF_ID='2'/ 
&OBST XB= -3180,-3150,87,57,1229,1562,  SURF_ID='2'/ 
&OBST XB= -3180,-3150,57,27,1229,1568,  SURF_ID='2'/ 
&OBST XB= -3180,-3150,27,-3,1229,1571,  SURF_ID='2'/ 
&OBST XB= -3180,-3150,-3,-33,1229,1556,  SURF_ID='2'/ 
&OBST XB= -3180,-3150,-33,-63,1229,1556,  SURF_ID='2'/ 
&OBST XB= -3180,-3150,-63,-93,1229,1553,  SURF_ID='2'/ 
&OBST XB= -3180,-3150,-93,-123,1229,1550,  SURF_ID='2'/ 
&OBST XB= -3180,-3150,-123,-153,1229,1546,  SURF_ID='2'/ 
&OBST XB= -3180,-3150,-153,-183,1229,1537,  SURF_ID='2'/ 
&OBST XB= -3180,-3150,-183,-213,1229,1536,  SURF_ID='2'/ 
&OBST XB= -3180,-3150,-213,-243,1229,1534,  SURF_ID='2'/ 
&OBST XB= -3180,-3150,-243,-273,1229,1534,  SURF_ID='2'/ 
&OBST XB= -3180,-3150,-273,-303,1229,1531,  SURF_ID='2'/ 
&OBST XB= -3180,-3150,-303,-333,1229,1528,  SURF_ID='2'/ 
&OBST XB= -3180,-3150,-333,-363,1229,1522,  SURF_ID='2'/ 
&OBST XB= -3180,-3150,-363,-393,1229,1520,  SURF_ID='2'/ 
&OBST XB= -3180,-3150,-393,-423,1229,1517,  SURF_ID='2'/ 
&OBST XB= -3180,-3150,-423,-453,1229,1510,  SURF_ID='2'/ 
&OBST XB= -3180,-3150,-453,-483,1229,1510,  SURF_ID='2'/ 
&OBST XB= -3180,-3150,-483,-513,1229,1496,  SURF_ID='2'/ 
&OBST XB= -3180,-3150,-513,-543,1229,1492,  SURF_ID='2'/ 
&OBST XB= -3180,-3150,-543,-573,1229,1482,  SURF_ID='2'/ 
&OBST XB= -3180,-3150,-573,-603,1229,1470,  SURF_ID='2'/ 
&OBST XB= -3180,-3150,-603,-633,1229,1455,  SURF_ID='2'/ 
&OBST XB= -3180,-3150,-633,-663,1229,1443,  SURF_ID='2'/ 
&OBST XB= -3180,-3150,-663,-693,1229,1443,  SURF_ID='2'/ 
&OBST XB= -3180,-3150,-693,-723,1229,1428,  SURF_ID='2'/ 
&OBST XB= -3180,-3150,-723,-753,1229,1414,  SURF_ID='2'/ 
&OBST XB= -3180,-3150,-753,-783,1229,1416,  SURF_ID='2'/ 
&OBST XB= -3180,-3150,-783,-813,1229,1405,  SURF_ID='2'/ 
&OBST XB= -3180,-3150,-813,-843,1229,1403,  SURF_ID='2'/ 
&OBST XB= -3180,-3150,-843,-873,1229,1401,  SURF_ID='2'/ 
&OBST XB= -3180,-3150,-873,-903,1229,1401,  SURF_ID='2'/ 
&OBST XB= -3180,-3150,-903,-933,1229,1398,  SURF_ID='2'/ 
&OBST XB= -3180,-3150,-933,-963,1229,1395,  SURF_ID='2'/ 
&OBST XB= -3180,-3150,-963,-993,1229,1394,  SURF_ID='2'/ 
&OBST XB= -3180,-3150,-993,-1023,1229,1396,  SURF_ID='2'/ 
&OBST XB= -3180,-3150,-1023,-1053,1229,1400,  SURF_ID='2'/ 
&OBST XB= -3180,-3150,-1053,-1083,1229,1390,  SURF_ID='2'/ 
&OBST XB= -3180,-3150,-1083,-1113,1229,1390,  SURF_ID='2'/ 
&OBST XB= -3180,-3150,-1113,-1143,1229,1386,  SURF_ID='2'/ 
&OBST XB= -3180,-3150,-1143,-1173,1229,1380,  SURF_ID='2'/ 
&OBST XB= -3180,-3150,-1173,-1203,1229,1362,  SURF_ID='2'/ 
&OBST XB= -3180,-3150,-1203,-1233,1229,1355,  SURF_ID='2'/ 
&OBST XB= -3180,-3150,-1233,-1263,1229,1347,  SURF_ID='2'/ 
&OBST XB= -3180,-3150,-1263,-1293,1229,1347,  SURF_ID='2'/ 
&OBST XB= -3180,-3150,-1293,-1323,1229,1347,  SURF_ID='2'/ 
&OBST XB= -3180,-3150,-1323,-1353,1229,1342,  SURF_ID='2'/ 
&OBST XB= -3180,-3150,-1353,-1383,1229,1335,  SURF_ID='2'/ 
&OBST XB= -3180,-3150,-1383,-1413,1229,1315,  SURF_ID='2'/ 
&OBST XB= -3180,-3150,-1413,-1443,1229,1310,  SURF_ID='2'/ 
&OBST XB= -3180,-3150,-1443,-1473,1229,1307,  SURF_ID='2'/ 
&OBST XB= -3180,-3150,-1473,-1503,1229,1305,  SURF_ID='2'/ 
&OBST XB= -3180,-3150,-1503,-1533,1229,1305,  SURF_ID='2'/ 
&OBST XB= -3180,-3150,-1533,-1563,1229,1311,  SURF_ID='9'/ 
&OBST XB= -3180,-3150,-1563,-1593,1229,1305,  SURF_ID='2'/ 
&OBST XB= -3180,-3150,-1593,-1623,1229,1310,  SURF_ID='2'/ 
&OBST XB= -3180,-3150,-1623,-1653,1229,1309,  SURF_ID='2'/ 
&OBST XB= -3180,-3150,-1653,-1683,1229,1305,  SURF_ID='2'/ 
&OBST XB= -3180,-3150,-1683,-1713,1229,1290,  SURF_ID='2'/ 
&OBST XB= -3180,-3150,-1713,-1743,1229,1290,  SURF_ID='2'/ 
&OBST XB= -3180,-3150,-1743,-1773,1229,1288,  SURF_ID='2'/ 
&OBST XB= -3180,-3150,-1773,-1803,1229,1287,  SURF_ID='2'/ 
&OBST XB= -3180,-3150,-1803,-1833,1229,1284,  SURF_ID='2'/ 
&OBST XB= -3180,-3150,-1833,-1863,1229,1277,  SURF_ID='2'/ 
&OBST XB= -3180,-3150,-1863,-1893,1229,1271,  SURF_ID='8'/ 
&OBST XB= -3180,-3150,-1893,-1923,1229,1256,  SURF_ID='8'/ 
&OBST XB= -3180,-3150,-1923,-1953,1229,1256,  SURF_ID='8'/ 
&OBST XB= -3180,-3150,-1953,-1983,1229,1256,  SURF_ID='2'/ 
&OBST XB= -3180,-3150,-1983,-2013,1229,1260,  SURF_ID='2'/ 
&OBST XB= -3180,-3150,-2013,-2043,1229,1250,  SURF_ID='2'/ 
&OBST XB= -3180,-3150,-2043,-2073,1229,1247,  SURF_ID='2'/ 
&OBST XB= -3180,-3150,-2073,-2103,1229,1240,  SURF_ID='0'/ 
&OBST XB= -3180,-3150,-2103,-2133,1229,1244,  SURF_ID='2'/ 
&OBST XB= -3180,-3150,-2133,-2163,1229,1244,  SURF_ID='2'/ 
&OBST XB= -3180,-3150,-2163,-2193,1229,1245,  SURF_ID='2'/ 
&OBST XB= -3180,-3150,-2193,-2223,1229,1257,  SURF_ID='2'/ 
&OBST XB= -3180,-3150,-2223,-2253,1229,1265,  SURF_ID='2'/ 
&OBST XB= -3180,-3150,-2253,-2283,1229,1264,  SURF_ID='2'/ 
&OBST XB= -3180,-3150,-2283,-2313,1229,1260,  SURF_ID='2'/ 
&OBST XB= -3180,-3150,-2313,-2343,1229,1260,  SURF_ID='2'/ 
&OBST XB= -3180,-3150,-2343,-2373,1229,1260,  SURF_ID='2'/ 
&OBST XB= -3180,-3150,-2373,-2403,1229,1264,  SURF_ID='2'/ 
&OBST XB= -3180,-3150,-2403,-2433,1229,1264,  SURF_ID='2'/ 
&OBST XB= -3180,-3150,-2433,-2463,1229,1256,  SURF_ID='2'/ 
&OBST XB= -3180,-3150,-2463,-2493,1229,1236,  SURF_ID='0'/ 
&OBST XB= -3180,-3150,-2493,-2523,1229,1235,  SURF_ID='0'/ 
&OBST XB= -3180,-3150,-2523,-2553,1229,1235,  SURF_ID='2'/ 
&OBST XB= -3180,-3150,-2553,-2583,1229,1235,  SURF_ID='2'/ 
&OBST XB= -3180,-3150,-2583,-2613,1229,1240,  SURF_ID='2'/ 
&OBST XB= -3180,-3150,-2613,-2643,1229,1262,  SURF_ID='2'/ 
&OBST XB= -3180,-3150,-2643,-2673,1229,1279,  SURF_ID='2'/ 
&OBST XB= -3180,-3150,-2673,-2703,1229,1296,  SURF_ID='2'/ 
&OBST XB= -3180,-3150,-2703,-2733,1229,1317,  SURF_ID='5'/ 
&OBST XB= -3180,-3150,-2733,-2763,1229,1331,  SURF_ID='2'/ 
&OBST XB= -3180,-3150,-2763,-2793,1229,1331,  SURF_ID='2'/ 
&OBST XB= -3180,-3150,-2793,-2823,1229,1364,  SURF_ID='2'/ 
&OBST XB= -3180,-3150,-2823,-2853,1229,1371,  SURF_ID='2'/ 
&OBST XB= -3180,-3150,-2853,-2883,1229,1375,  SURF_ID='2'/ 
&OBST XB= -3180,-3150,-2883,-2913,1229,1380,  SURF_ID='2'/ 
&OBST XB= -3180,-3150,-2913,-2943,1229,1401,  SURF_ID='2'/ 
&OBST XB= -3180,-3150,-2943,-2973,1229,1407,  SURF_ID='2'/ 
&OBST XB= -3180,-3150,-2973,-3003,1229,1407,  SURF_ID='2'/ 
&OBST XB= -3180,-3150,-3003,-3033,1229,1414,  SURF_ID='2'/ 
&OBST XB= -3180,-3150,-3033,-3063,1229,1419,  SURF_ID='9'/ 
&OBST XB= -3180,-3150,-3063,-3093,1229,1422,  SURF_ID='2'/ 
&OBST XB= -3180,-3150,-3093,-3123,1229,1446,  SURF_ID='2'/ 
&OBST XB= -3180,-3150,-3123,-3153,1229,1453,  SURF_ID='9'/ 
&OBST XB= -3180,-3150,-3153,-3183,1229,1463,  SURF_ID='8'/ 
&OBST XB= -3180,-3150,-3183,-3213,1229,1463,  SURF_ID='8'/ 
&OBST XB= -3180,-3150,-3213,-3243,1229,1469,  SURF_ID='9'/ 
&OBST XB= -3150,-3120,3237,3207,1229,1441,  SURF_ID='8'/ 
&OBST XB= -3150,-3120,3207,3177,1229,1429,  SURF_ID='9'/ 
&OBST XB= -3150,-3120,3177,3147,1229,1414,  SURF_ID='2'/ 
&OBST XB= -3150,-3120,3147,3117,1229,1403,  SURF_ID='9'/ 
&OBST XB= -3150,-3120,3117,3087,1229,1403,  SURF_ID='9'/ 
&OBST XB= -3150,-3120,3087,3057,1229,1389,  SURF_ID='2'/ 
&OBST XB= -3150,-3120,3057,3027,1229,1383,  SURF_ID='5'/ 
&OBST XB= -3150,-3120,3027,2997,1229,1370,  SURF_ID='2'/ 
&OBST XB= -3150,-3120,2997,2967,1229,1383,  SURF_ID='2'/ 
&OBST XB= -3150,-3120,2967,2937,1229,1418,  SURF_ID='5'/ 
&OBST XB= -3150,-3120,2937,2907,1229,1431,  SURF_ID='9'/ 
&OBST XB= -3150,-3120,2907,2877,1229,1431,  SURF_ID='9'/ 
&OBST XB= -3150,-3120,2877,2847,1229,1434,  SURF_ID='9'/ 
&OBST XB= -3150,-3120,2847,2817,1229,1439,  SURF_ID='9'/ 
&OBST XB= -3150,-3120,2817,2787,1229,1454,  SURF_ID='2'/ 
&OBST XB= -3150,-3120,2787,2757,1229,1465,  SURF_ID='2'/ 
&OBST XB= -3150,-3120,2757,2727,1229,1478,  SURF_ID='2'/ 
&OBST XB= -3150,-3120,2727,2697,1229,1476,  SURF_ID='2'/ 
&OBST XB= -3150,-3120,2697,2667,1229,1476,  SURF_ID='2'/ 
&OBST XB= -3150,-3120,2667,2637,1229,1473,  SURF_ID='2'/ 
&OBST XB= -3150,-3120,2637,2607,1229,1468,  SURF_ID='2'/ 
&OBST XB= -3150,-3120,2607,2577,1229,1466,  SURF_ID='2'/ 
&OBST XB= -3150,-3120,2577,2547,1229,1454,  SURF_ID='2'/ 
&OBST XB= -3150,-3120,2547,2517,1229,1433,  SURF_ID='5'/ 
&OBST XB= -3150,-3120,2517,2487,1229,1447,  SURF_ID='2'/ 
&OBST XB= -3150,-3120,2487,2457,1229,1447,  SURF_ID='2'/ 
&OBST XB= -3150,-3120,2457,2427,1229,1448,  SURF_ID='2'/ 
&OBST XB= -3150,-3120,2427,2397,1229,1456,  SURF_ID='2'/ 
&OBST XB= -3150,-3120,2397,2367,1229,1461,  SURF_ID='2'/ 
&OBST XB= -3150,-3120,2367,2337,1229,1464,  SURF_ID='2'/ 
&OBST XB= -3150,-3120,2337,2307,1229,1464,  SURF_ID='2'/ 
&OBST XB= -3150,-3120,2307,2277,1229,1446,  SURF_ID='2'/ 
&OBST XB= -3150,-3120,2277,2247,1229,1446,  SURF_ID='2'/ 
&OBST XB= -3150,-3120,2247,2217,1229,1443,  SURF_ID='2'/ 
&OBST XB= -3150,-3120,2217,2187,1229,1439,  SURF_ID='2'/ 
&OBST XB= -3150,-3120,2187,2157,1229,1436,  SURF_ID='2'/ 
&OBST XB= -3150,-3120,2157,2127,1229,1420,  SURF_ID='8'/ 
&OBST XB= -3150,-3120,2127,2097,1229,1414,  SURF_ID='8'/ 
&OBST XB= -3150,-3120,2097,2067,1229,1411,  SURF_ID='2'/ 
&OBST XB= -3150,-3120,2067,2037,1229,1411,  SURF_ID='2'/ 
&OBST XB= -3150,-3120,2037,2007,1229,1418,  SURF_ID='2'/ 
&OBST XB= -3150,-3120,2007,1977,1229,1423,  SURF_ID='2'/ 
&OBST XB= -3150,-3120,1977,1947,1229,1414,  SURF_ID='2'/ 
&OBST XB= -3150,-3120,1947,1917,1229,1417,  SURF_ID='2'/ 
&OBST XB= -3150,-3120,1917,1887,1229,1421,  SURF_ID='2'/ 
&OBST XB= -3150,-3120,1887,1857,1229,1425,  SURF_ID='2'/ 
&OBST XB= -3150,-3120,1857,1827,1229,1425,  SURF_ID='2'/ 
&OBST XB= -3150,-3120,1827,1797,1229,1418,  SURF_ID='2'/ 
&OBST XB= -3150,-3120,1797,1767,1229,1425,  SURF_ID='2'/ 
&OBST XB= -3150,-3120,1767,1737,1229,1423,  SURF_ID='2'/ 
&OBST XB= -3150,-3120,1737,1707,1229,1418,  SURF_ID='2'/ 
&OBST XB= -3150,-3120,1707,1677,1229,1403,  SURF_ID='9'/ 
&OBST XB= -3150,-3120,1677,1647,1229,1417,  SURF_ID='5'/ 
&OBST XB= -3150,-3120,1647,1617,1229,1417,  SURF_ID='5'/ 
&OBST XB= -3150,-3120,1617,1587,1229,1434,  SURF_ID='8'/ 
&OBST XB= -3150,-3120,1587,1557,1229,1451,  SURF_ID='2'/ 
&OBST XB= -3150,-3120,1557,1527,1229,1455,  SURF_ID='2'/ 
&OBST XB= -3150,-3120,1527,1497,1229,1476,  SURF_ID='2'/ 
&OBST XB= -3150,-3120,1497,1467,1229,1478,  SURF_ID='2'/ 
&OBST XB= -3150,-3120,1467,1437,1229,1483,  SURF_ID='5'/ 
&OBST XB= -3150,-3120,1437,1407,1229,1483,  SURF_ID='5'/ 
&OBST XB= -3150,-3120,1407,1377,1229,1489,  SURF_ID='5'/ 
&OBST XB= -3150,-3120,1377,1347,1229,1508,  SURF_ID='5'/ 
&OBST XB= -3150,-3120,1347,1317,1229,1532,  SURF_ID='8'/ 
&OBST XB= -3150,-3120,1317,1287,1229,1543,  SURF_ID='8'/ 
&OBST XB= -3150,-3120,1287,1257,1229,1553,  SURF_ID='5'/ 
&OBST XB= -3150,-3120,1257,1227,1229,1561,  SURF_ID='9'/ 
&OBST XB= -3150,-3120,1227,1197,1229,1561,  SURF_ID='9'/ 
&OBST XB= -3150,-3120,1197,1167,1229,1575,  SURF_ID='2'/ 
&OBST XB= -3150,-3120,1167,1137,1229,1583,  SURF_ID='9'/ 
&OBST XB= -3150,-3120,1137,1107,1229,1597,  SURF_ID='2'/ 
&OBST XB= -3150,-3120,1107,1077,1229,1600,  SURF_ID='2'/ 
&OBST XB= -3150,-3120,1077,1047,1229,1598,  SURF_ID='2'/ 
&OBST XB= -3150,-3120,1047,1017,1229,1595,  SURF_ID='2'/ 
&OBST XB= -3150,-3120,1017,987,1229,1595,  SURF_ID='2'/ 
&OBST XB= -3150,-3120,987,957,1229,1591,  SURF_ID='2'/ 
&OBST XB= -3150,-3120,957,927,1229,1590,  SURF_ID='2'/ 
&OBST XB= -3150,-3120,927,897,1229,1585,  SURF_ID='2'/ 
&OBST XB= -3150,-3120,897,867,1229,1585,  SURF_ID='2'/ 
&OBST XB= -3150,-3120,867,837,1229,1579,  SURF_ID='2'/ 
&OBST XB= -3150,-3120,837,807,1229,1571,  SURF_ID='2'/ 
&OBST XB= -3150,-3120,807,777,1229,1571,  SURF_ID='2'/ 
&OBST XB= -3150,-3120,777,747,1229,1564,  SURF_ID='2'/ 
&OBST XB= -3150,-3120,747,717,1229,1550,  SURF_ID='2'/ 
&OBST XB= -3150,-3120,717,687,1229,1544,  SURF_ID='2'/ 
&OBST XB= -3150,-3120,687,657,1229,1529,  SURF_ID='2'/ 
&OBST XB= -3150,-3120,657,627,1229,1525,  SURF_ID='2'/ 
&OBST XB= -3150,-3120,627,597,1229,1516,  SURF_ID='2'/ 
&OBST XB= -3150,-3120,597,567,1229,1516,  SURF_ID='2'/ 
&OBST XB= -3150,-3120,567,537,1229,1511,  SURF_ID='2'/ 
&OBST XB= -3150,-3120,537,507,1229,1502,  SURF_ID='2'/ 
&OBST XB= -3150,-3120,507,477,1229,1493,  SURF_ID='2'/ 
&OBST XB= -3150,-3120,477,447,1229,1485,  SURF_ID='2'/ 
&OBST XB= -3150,-3120,447,417,1229,1459,  SURF_ID='8'/ 
&OBST XB= -3150,-3120,417,387,1229,1459,  SURF_ID='8'/ 
&OBST XB= -3150,-3120,387,357,1229,1459,  SURF_ID='8'/ 
&OBST XB= -3150,-3120,357,327,1229,1473,  SURF_ID='9'/ 
&OBST XB= -3150,-3120,327,297,1229,1492,  SURF_ID='5'/ 
&OBST XB= -3150,-3120,297,267,1229,1500,  SURF_ID='2'/ 
&OBST XB= -3150,-3120,267,237,1229,1508,  SURF_ID='2'/ 
&OBST XB= -3150,-3120,237,207,1229,1528,  SURF_ID='2'/ 
&OBST XB= -3150,-3120,207,177,1229,1538,  SURF_ID='2'/ 
&OBST XB= -3150,-3120,177,147,1229,1538,  SURF_ID='2'/ 
&OBST XB= -3150,-3120,147,117,1229,1545,  SURF_ID='2'/ 
&OBST XB= -3150,-3120,117,87,1229,1553,  SURF_ID='2'/ 
&OBST XB= -3150,-3120,87,57,1229,1562,  SURF_ID='2'/ 
&OBST XB= -3150,-3120,57,27,1229,1568,  SURF_ID='2'/ 
&OBST XB= -3150,-3120,27,-3,1229,1571,  SURF_ID='2'/ 
&OBST XB= -3150,-3120,-3,-33,1229,1556,  SURF_ID='2'/ 
&OBST XB= -3150,-3120,-33,-63,1229,1556,  SURF_ID='2'/ 
&OBST XB= -3150,-3120,-63,-93,1229,1553,  SURF_ID='2'/ 
&OBST XB= -3150,-3120,-93,-123,1229,1550,  SURF_ID='2'/ 
&OBST XB= -3150,-3120,-123,-153,1229,1546,  SURF_ID='2'/ 
&OBST XB= -3150,-3120,-153,-183,1229,1537,  SURF_ID='2'/ 
&OBST XB= -3150,-3120,-183,-213,1229,1536,  SURF_ID='2'/ 
&OBST XB= -3150,-3120,-213,-243,1229,1534,  SURF_ID='2'/ 
&OBST XB= -3150,-3120,-243,-273,1229,1534,  SURF_ID='2'/ 
&OBST XB= -3150,-3120,-273,-303,1229,1531,  SURF_ID='2'/ 
&OBST XB= -3150,-3120,-303,-333,1229,1528,  SURF_ID='2'/ 
&OBST XB= -3150,-3120,-333,-363,1229,1522,  SURF_ID='2'/ 
&OBST XB= -3150,-3120,-363,-393,1229,1520,  SURF_ID='2'/ 
&OBST XB= -3150,-3120,-393,-423,1229,1517,  SURF_ID='2'/ 
&OBST XB= -3150,-3120,-423,-453,1229,1510,  SURF_ID='2'/ 
&OBST XB= -3150,-3120,-453,-483,1229,1510,  SURF_ID='2'/ 
&OBST XB= -3150,-3120,-483,-513,1229,1496,  SURF_ID='2'/ 
&OBST XB= -3150,-3120,-513,-543,1229,1492,  SURF_ID='2'/ 
&OBST XB= -3150,-3120,-543,-573,1229,1482,  SURF_ID='2'/ 
&OBST XB= -3150,-3120,-573,-603,1229,1470,  SURF_ID='2'/ 
&OBST XB= -3150,-3120,-603,-633,1229,1455,  SURF_ID='2'/ 
&OBST XB= -3150,-3120,-633,-663,1229,1443,  SURF_ID='2'/ 
&OBST XB= -3150,-3120,-663,-693,1229,1443,  SURF_ID='2'/ 
&OBST XB= -3150,-3120,-693,-723,1229,1428,  SURF_ID='2'/ 
&OBST XB= -3150,-3120,-723,-753,1229,1414,  SURF_ID='2'/ 
&OBST XB= -3150,-3120,-753,-783,1229,1416,  SURF_ID='2'/ 
&OBST XB= -3150,-3120,-783,-813,1229,1405,  SURF_ID='2'/ 
&OBST XB= -3150,-3120,-813,-843,1229,1403,  SURF_ID='2'/ 
&OBST XB= -3150,-3120,-843,-873,1229,1401,  SURF_ID='2'/ 
&OBST XB= -3150,-3120,-873,-903,1229,1401,  SURF_ID='2'/ 
&OBST XB= -3150,-3120,-903,-933,1229,1398,  SURF_ID='2'/ 
&OBST XB= -3150,-3120,-933,-963,1229,1395,  SURF_ID='2'/ 
&OBST XB= -3150,-3120,-963,-993,1229,1394,  SURF_ID='2'/ 
&OBST XB= -3150,-3120,-993,-1023,1229,1396,  SURF_ID='2'/ 
&OBST XB= -3150,-3120,-1023,-1053,1229,1400,  SURF_ID='2'/ 
&OBST XB= -3150,-3120,-1053,-1083,1229,1390,  SURF_ID='2'/ 
&OBST XB= -3150,-3120,-1083,-1113,1229,1390,  SURF_ID='2'/ 
&OBST XB= -3150,-3120,-1113,-1143,1229,1386,  SURF_ID='2'/ 
&OBST XB= -3150,-3120,-1143,-1173,1229,1380,  SURF_ID='2'/ 
&OBST XB= -3150,-3120,-1173,-1203,1229,1362,  SURF_ID='2'/ 
&OBST XB= -3150,-3120,-1203,-1233,1229,1355,  SURF_ID='2'/ 
&OBST XB= -3150,-3120,-1233,-1263,1229,1347,  SURF_ID='2'/ 
&OBST XB= -3150,-3120,-1263,-1293,1229,1347,  SURF_ID='2'/ 
&OBST XB= -3150,-3120,-1293,-1323,1229,1347,  SURF_ID='2'/ 
&OBST XB= -3150,-3120,-1323,-1353,1229,1342,  SURF_ID='2'/ 
&OBST XB= -3150,-3120,-1353,-1383,1229,1335,  SURF_ID='2'/ 
&OBST XB= -3150,-3120,-1383,-1413,1229,1315,  SURF_ID='2'/ 
&OBST XB= -3150,-3120,-1413,-1443,1229,1310,  SURF_ID='2'/ 
&OBST XB= -3150,-3120,-1443,-1473,1229,1307,  SURF_ID='2'/ 
&OBST XB= -3150,-3120,-1473,-1503,1229,1305,  SURF_ID='2'/ 
&OBST XB= -3150,-3120,-1503,-1533,1229,1305,  SURF_ID='2'/ 
&OBST XB= -3150,-3120,-1533,-1563,1229,1311,  SURF_ID='9'/ 
&OBST XB= -3150,-3120,-1563,-1593,1229,1305,  SURF_ID='2'/ 
&OBST XB= -3150,-3120,-1593,-1623,1229,1310,  SURF_ID='2'/ 
&OBST XB= -3150,-3120,-1623,-1653,1229,1309,  SURF_ID='2'/ 
&OBST XB= -3150,-3120,-1653,-1683,1229,1305,  SURF_ID='2'/ 
&OBST XB= -3150,-3120,-1683,-1713,1229,1290,  SURF_ID='2'/ 
&OBST XB= -3150,-3120,-1713,-1743,1229,1290,  SURF_ID='2'/ 
&OBST XB= -3150,-3120,-1743,-1773,1229,1288,  SURF_ID='2'/ 
&OBST XB= -3150,-3120,-1773,-1803,1229,1287,  SURF_ID='2'/ 
&OBST XB= -3150,-3120,-1803,-1833,1229,1284,  SURF_ID='2'/ 
&OBST XB= -3150,-3120,-1833,-1863,1229,1277,  SURF_ID='2'/ 
&OBST XB= -3150,-3120,-1863,-1893,1229,1271,  SURF_ID='8'/ 
&OBST XB= -3150,-3120,-1893,-1923,1229,1256,  SURF_ID='8'/ 
&OBST XB= -3150,-3120,-1923,-1953,1229,1256,  SURF_ID='8'/ 
&OBST XB= -3150,-3120,-1953,-1983,1229,1256,  SURF_ID='2'/ 
&OBST XB= -3150,-3120,-1983,-2013,1229,1260,  SURF_ID='2'/ 
&OBST XB= -3150,-3120,-2013,-2043,1229,1250,  SURF_ID='2'/ 
&OBST XB= -3150,-3120,-2043,-2073,1229,1247,  SURF_ID='2'/ 
&OBST XB= -3150,-3120,-2073,-2103,1229,1240,  SURF_ID='0'/ 
&OBST XB= -3150,-3120,-2103,-2133,1229,1244,  SURF_ID='2'/ 
&OBST XB= -3150,-3120,-2133,-2163,1229,1244,  SURF_ID='2'/ 
&OBST XB= -3150,-3120,-2163,-2193,1229,1245,  SURF_ID='2'/ 
&OBST XB= -3150,-3120,-2193,-2223,1229,1257,  SURF_ID='2'/ 
&OBST XB= -3150,-3120,-2223,-2253,1229,1265,  SURF_ID='2'/ 
&OBST XB= -3150,-3120,-2253,-2283,1229,1264,  SURF_ID='2'/ 
&OBST XB= -3150,-3120,-2283,-2313,1229,1260,  SURF_ID='2'/ 
&OBST XB= -3150,-3120,-2313,-2343,1229,1260,  SURF_ID='2'/ 
&OBST XB= -3150,-3120,-2343,-2373,1229,1260,  SURF_ID='2'/ 
&OBST XB= -3150,-3120,-2373,-2403,1229,1264,  SURF_ID='2'/ 
&OBST XB= -3150,-3120,-2403,-2433,1229,1264,  SURF_ID='2'/ 
&OBST XB= -3150,-3120,-2433,-2463,1229,1256,  SURF_ID='2'/ 
&OBST XB= -3150,-3120,-2463,-2493,1229,1236,  SURF_ID='0'/ 
&OBST XB= -3150,-3120,-2493,-2523,1229,1235,  SURF_ID='0'/ 
&OBST XB= -3150,-3120,-2523,-2553,1229,1235,  SURF_ID='2'/ 
&OBST XB= -3150,-3120,-2553,-2583,1229,1235,  SURF_ID='2'/ 
&OBST XB= -3150,-3120,-2583,-2613,1229,1240,  SURF_ID='2'/ 
&OBST XB= -3150,-3120,-2613,-2643,1229,1262,  SURF_ID='2'/ 
&OBST XB= -3150,-3120,-2643,-2673,1229,1279,  SURF_ID='2'/ 
&OBST XB= -3150,-3120,-2673,-2703,1229,1296,  SURF_ID='2'/ 
&OBST XB= -3150,-3120,-2703,-2733,1229,1317,  SURF_ID='5'/ 
&OBST XB= -3150,-3120,-2733,-2763,1229,1331,  SURF_ID='2'/ 
&OBST XB= -3150,-3120,-2763,-2793,1229,1331,  SURF_ID='2'/ 
&OBST XB= -3150,-3120,-2793,-2823,1229,1364,  SURF_ID='2'/ 
&OBST XB= -3150,-3120,-2823,-2853,1229,1371,  SURF_ID='2'/ 
&OBST XB= -3150,-3120,-2853,-2883,1229,1375,  SURF_ID='2'/ 
&OBST XB= -3150,-3120,-2883,-2913,1229,1380,  SURF_ID='2'/ 
&OBST XB= -3150,-3120,-2913,-2943,1229,1401,  SURF_ID='2'/ 
&OBST XB= -3150,-3120,-2943,-2973,1229,1407,  SURF_ID='2'/ 
&OBST XB= -3150,-3120,-2973,-3003,1229,1407,  SURF_ID='2'/ 
&OBST XB= -3150,-3120,-3003,-3033,1229,1414,  SURF_ID='2'/ 
&OBST XB= -3150,-3120,-3033,-3063,1229,1419,  SURF_ID='9'/ 
&OBST XB= -3150,-3120,-3063,-3093,1229,1422,  SURF_ID='2'/ 
&OBST XB= -3150,-3120,-3093,-3123,1229,1446,  SURF_ID='2'/ 
&OBST XB= -3150,-3120,-3123,-3153,1229,1453,  SURF_ID='9'/ 
&OBST XB= -3150,-3120,-3153,-3183,1229,1463,  SURF_ID='8'/ 
&OBST XB= -3150,-3120,-3183,-3213,1229,1463,  SURF_ID='8'/ 
&OBST XB= -3150,-3120,-3213,-3243,1229,1469,  SURF_ID='9'/ 
&OBST XB= -3120,-3090,3237,3207,1229,1448,  SURF_ID='5'/ 
&OBST XB= -3120,-3090,3207,3177,1229,1440,  SURF_ID='2'/ 
&OBST XB= -3120,-3090,3177,3147,1229,1424,  SURF_ID='2'/ 
&OBST XB= -3120,-3090,3147,3117,1229,1400,  SURF_ID='9'/ 
&OBST XB= -3120,-3090,3117,3087,1229,1400,  SURF_ID='9'/ 
&OBST XB= -3120,-3090,3087,3057,1229,1398,  SURF_ID='5'/ 
&OBST XB= -3120,-3090,3057,3027,1229,1388,  SURF_ID='2'/ 
&OBST XB= -3120,-3090,3027,2997,1229,1375,  SURF_ID='9'/ 
&OBST XB= -3120,-3090,2997,2967,1229,1386,  SURF_ID='9'/ 
&OBST XB= -3120,-3090,2967,2937,1229,1409,  SURF_ID='2'/ 
&OBST XB= -3120,-3090,2937,2907,1229,1423,  SURF_ID='9'/ 
&OBST XB= -3120,-3090,2907,2877,1229,1423,  SURF_ID='9'/ 
&OBST XB= -3120,-3090,2877,2847,1229,1436,  SURF_ID='9'/ 
&OBST XB= -3120,-3090,2847,2817,1229,1446,  SURF_ID='5'/ 
&OBST XB= -3120,-3090,2817,2787,1229,1459,  SURF_ID='5'/ 
&OBST XB= -3120,-3090,2787,2757,1229,1471,  SURF_ID='2'/ 
&OBST XB= -3120,-3090,2757,2727,1229,1477,  SURF_ID='2'/ 
&OBST XB= -3120,-3090,2727,2697,1229,1480,  SURF_ID='9'/ 
&OBST XB= -3120,-3090,2697,2667,1229,1480,  SURF_ID='9'/ 
&OBST XB= -3120,-3090,2667,2637,1229,1477,  SURF_ID='2'/ 
&OBST XB= -3120,-3090,2637,2607,1229,1475,  SURF_ID='2'/ 
&OBST XB= -3120,-3090,2607,2577,1229,1468,  SURF_ID='2'/ 
&OBST XB= -3120,-3090,2577,2547,1229,1458,  SURF_ID='2'/ 
&OBST XB= -3120,-3090,2547,2517,1229,1442,  SURF_ID='5'/ 
&OBST XB= -3120,-3090,2517,2487,1229,1428,  SURF_ID='2'/ 
&OBST XB= -3120,-3090,2487,2457,1229,1428,  SURF_ID='2'/ 
&OBST XB= -3120,-3090,2457,2427,1229,1436,  SURF_ID='8'/ 
&OBST XB= -3120,-3090,2427,2397,1229,1444,  SURF_ID='2'/ 
&OBST XB= -3120,-3090,2397,2367,1229,1451,  SURF_ID='2'/ 
&OBST XB= -3120,-3090,2367,2337,1229,1455,  SURF_ID='2'/ 
&OBST XB= -3120,-3090,2337,2307,1229,1444,  SURF_ID='9'/ 
&OBST XB= -3120,-3090,2307,2277,1229,1441,  SURF_ID='2'/ 
&OBST XB= -3120,-3090,2277,2247,1229,1441,  SURF_ID='2'/ 
&OBST XB= -3120,-3090,2247,2217,1229,1437,  SURF_ID='2'/ 
&OBST XB= -3120,-3090,2217,2187,1229,1427,  SURF_ID='2'/ 
&OBST XB= -3120,-3090,2187,2157,1229,1425,  SURF_ID='8'/ 
&OBST XB= -3120,-3090,2157,2127,1229,1415,  SURF_ID='8'/ 
&OBST XB= -3120,-3090,2127,2097,1229,1412,  SURF_ID='5'/ 
&OBST XB= -3120,-3090,2097,2067,1229,1411,  SURF_ID='5'/ 
&OBST XB= -3120,-3090,2067,2037,1229,1411,  SURF_ID='5'/ 
&OBST XB= -3120,-3090,2037,2007,1229,1409,  SURF_ID='5'/ 
&OBST XB= -3120,-3090,2007,1977,1229,1409,  SURF_ID='2'/ 
&OBST XB= -3120,-3090,1977,1947,1229,1408,  SURF_ID='8'/ 
&OBST XB= -3120,-3090,1947,1917,1229,1410,  SURF_ID='9'/ 
&OBST XB= -3120,-3090,1917,1887,1229,1409,  SURF_ID='9'/ 
&OBST XB= -3120,-3090,1887,1857,1229,1402,  SURF_ID='5'/ 
&OBST XB= -3120,-3090,1857,1827,1229,1402,  SURF_ID='5'/ 
&OBST XB= -3120,-3090,1827,1797,1229,1404,  SURF_ID='2'/ 
&OBST XB= -3120,-3090,1797,1767,1229,1406,  SURF_ID='2'/ 
&OBST XB= -3120,-3090,1767,1737,1229,1407,  SURF_ID='2'/ 
&OBST XB= -3120,-3090,1737,1707,1229,1402,  SURF_ID='9'/ 
&OBST XB= -3120,-3090,1707,1677,1229,1414,  SURF_ID='9'/ 
&OBST XB= -3120,-3090,1677,1647,1229,1431,  SURF_ID='8'/ 
&OBST XB= -3120,-3090,1647,1617,1229,1431,  SURF_ID='8'/ 
&OBST XB= -3120,-3090,1617,1587,1229,1442,  SURF_ID='5'/ 
&OBST XB= -3120,-3090,1587,1557,1229,1454,  SURF_ID='2'/ 
&OBST XB= -3120,-3090,1557,1527,1229,1471,  SURF_ID='2'/ 
&OBST XB= -3120,-3090,1527,1497,1229,1487,  SURF_ID='2'/ 
&OBST XB= -3120,-3090,1497,1467,1229,1491,  SURF_ID='2'/ 
&OBST XB= -3120,-3090,1467,1437,1229,1495,  SURF_ID='2'/ 
&OBST XB= -3120,-3090,1437,1407,1229,1495,  SURF_ID='2'/ 
&OBST XB= -3120,-3090,1407,1377,1229,1510,  SURF_ID='5'/ 
&OBST XB= -3120,-3090,1377,1347,1229,1517,  SURF_ID='5'/ 
&OBST XB= -3120,-3090,1347,1317,1229,1527,  SURF_ID='5'/ 
&OBST XB= -3120,-3090,1317,1287,1229,1546,  SURF_ID='8'/ 
&OBST XB= -3120,-3090,1287,1257,1229,1556,  SURF_ID='2'/ 
&OBST XB= -3120,-3090,1257,1227,1229,1570,  SURF_ID='2'/ 
&OBST XB= -3120,-3090,1227,1197,1229,1570,  SURF_ID='2'/ 
&OBST XB= -3120,-3090,1197,1167,1229,1578,  SURF_ID='2'/ 
&OBST XB= -3120,-3090,1167,1137,1229,1585,  SURF_ID='5'/ 
&OBST XB= -3120,-3090,1137,1107,1229,1592,  SURF_ID='2'/ 
&OBST XB= -3120,-3090,1107,1077,1229,1592,  SURF_ID='2'/ 
&OBST XB= -3120,-3090,1077,1047,1229,1592,  SURF_ID='2'/ 
&OBST XB= -3120,-3090,1047,1017,1229,1588,  SURF_ID='2'/ 
&OBST XB= -3120,-3090,1017,987,1229,1588,  SURF_ID='2'/ 
&OBST XB= -3120,-3090,987,957,1229,1582,  SURF_ID='2'/ 
&OBST XB= -3120,-3090,957,927,1229,1581,  SURF_ID='2'/ 
&OBST XB= -3120,-3090,927,897,1229,1579,  SURF_ID='2'/ 
&OBST XB= -3120,-3090,897,867,1229,1584,  SURF_ID='2'/ 
&OBST XB= -3120,-3090,867,837,1229,1572,  SURF_ID='2'/ 
&OBST XB= -3120,-3090,837,807,1229,1561,  SURF_ID='2'/ 
&OBST XB= -3120,-3090,807,777,1229,1561,  SURF_ID='2'/ 
&OBST XB= -3120,-3090,777,747,1229,1544,  SURF_ID='2'/ 
&OBST XB= -3120,-3090,747,717,1229,1540,  SURF_ID='2'/ 
&OBST XB= -3120,-3090,717,687,1229,1533,  SURF_ID='2'/ 
&OBST XB= -3120,-3090,687,657,1229,1527,  SURF_ID='2'/ 
&OBST XB= -3120,-3090,657,627,1229,1517,  SURF_ID='2'/ 
&OBST XB= -3120,-3090,627,597,1229,1511,  SURF_ID='2'/ 
&OBST XB= -3120,-3090,597,567,1229,1511,  SURF_ID='2'/ 
&OBST XB= -3120,-3090,567,537,1229,1507,  SURF_ID='2'/ 
&OBST XB= -3120,-3090,537,507,1229,1500,  SURF_ID='2'/ 
&OBST XB= -3120,-3090,507,477,1229,1492,  SURF_ID='2'/ 
&OBST XB= -3120,-3090,477,447,1229,1475,  SURF_ID='2'/ 
&OBST XB= -3120,-3090,447,417,1229,1463,  SURF_ID='2'/ 
&OBST XB= -3120,-3090,417,387,1229,1461,  SURF_ID='9'/ 
&OBST XB= -3120,-3090,387,357,1229,1461,  SURF_ID='9'/ 
&OBST XB= -3120,-3090,357,327,1229,1474,  SURF_ID='9'/ 
&OBST XB= -3120,-3090,327,297,1229,1491,  SURF_ID='2'/ 
&OBST XB= -3120,-3090,297,267,1229,1502,  SURF_ID='2'/ 
&OBST XB= -3120,-3090,267,237,1229,1507,  SURF_ID='5'/ 
&OBST XB= -3120,-3090,237,207,1229,1515,  SURF_ID='2'/ 
&OBST XB= -3120,-3090,207,177,1229,1525,  SURF_ID='2'/ 
&OBST XB= -3120,-3090,177,147,1229,1525,  SURF_ID='2'/ 
&OBST XB= -3120,-3090,147,117,1229,1547,  SURF_ID='2'/ 
&OBST XB= -3120,-3090,117,87,1229,1556,  SURF_ID='2'/ 
&OBST XB= -3120,-3090,87,57,1229,1564,  SURF_ID='2'/ 
&OBST XB= -3120,-3090,57,27,1229,1567,  SURF_ID='2'/ 
&OBST XB= -3120,-3090,27,-3,1229,1554,  SURF_ID='2'/ 
&OBST XB= -3120,-3090,-3,-33,1229,1548,  SURF_ID='2'/ 
&OBST XB= -3120,-3090,-33,-63,1229,1548,  SURF_ID='2'/ 
&OBST XB= -3120,-3090,-63,-93,1229,1546,  SURF_ID='2'/ 
&OBST XB= -3120,-3090,-93,-123,1229,1541,  SURF_ID='2'/ 
&OBST XB= -3120,-3090,-123,-153,1229,1531,  SURF_ID='2'/ 
&OBST XB= -3120,-3090,-153,-183,1229,1531,  SURF_ID='2'/ 
&OBST XB= -3120,-3090,-183,-213,1229,1530,  SURF_ID='2'/ 
&OBST XB= -3120,-3090,-213,-243,1229,1530,  SURF_ID='2'/ 
&OBST XB= -3120,-3090,-243,-273,1229,1530,  SURF_ID='2'/ 
&OBST XB= -3120,-3090,-273,-303,1229,1529,  SURF_ID='2'/ 
&OBST XB= -3120,-3090,-303,-333,1229,1522,  SURF_ID='2'/ 
&OBST XB= -3120,-3090,-333,-363,1229,1521,  SURF_ID='2'/ 
&OBST XB= -3120,-3090,-363,-393,1229,1518,  SURF_ID='2'/ 
&OBST XB= -3120,-3090,-393,-423,1229,1513,  SURF_ID='2'/ 
&OBST XB= -3120,-3090,-423,-453,1229,1505,  SURF_ID='2'/ 
&OBST XB= -3120,-3090,-453,-483,1229,1505,  SURF_ID='2'/ 
&OBST XB= -3120,-3090,-483,-513,1229,1498,  SURF_ID='2'/ 
&OBST XB= -3120,-3090,-513,-543,1229,1488,  SURF_ID='2'/ 
&OBST XB= -3120,-3090,-543,-573,1229,1473,  SURF_ID='2'/ 
&OBST XB= -3120,-3090,-573,-603,1229,1464,  SURF_ID='2'/ 
&OBST XB= -3120,-3090,-603,-633,1229,1445,  SURF_ID='2'/ 
&OBST XB= -3120,-3090,-633,-663,1229,1432,  SURF_ID='2'/ 
&OBST XB= -3120,-3090,-663,-693,1229,1432,  SURF_ID='2'/ 
&OBST XB= -3120,-3090,-693,-723,1229,1421,  SURF_ID='2'/ 
&OBST XB= -3120,-3090,-723,-753,1229,1408,  SURF_ID='2'/ 
&OBST XB= -3120,-3090,-753,-783,1229,1396,  SURF_ID='2'/ 
&OBST XB= -3120,-3090,-783,-813,1229,1395,  SURF_ID='2'/ 
&OBST XB= -3120,-3090,-813,-843,1229,1393,  SURF_ID='2'/ 
&OBST XB= -3120,-3090,-843,-873,1229,1389,  SURF_ID='2'/ 
&OBST XB= -3120,-3090,-873,-903,1229,1389,  SURF_ID='2'/ 
&OBST XB= -3120,-3090,-903,-933,1229,1383,  SURF_ID='2'/ 
&OBST XB= -3120,-3090,-933,-963,1229,1386,  SURF_ID='2'/ 
&OBST XB= -3120,-3090,-963,-993,1229,1386,  SURF_ID='2'/ 
&OBST XB= -3120,-3090,-993,-1023,1229,1388,  SURF_ID='2'/ 
&OBST XB= -3120,-3090,-1023,-1053,1229,1391,  SURF_ID='2'/ 
&OBST XB= -3120,-3090,-1053,-1083,1229,1376,  SURF_ID='2'/ 
&OBST XB= -3120,-3090,-1083,-1113,1229,1376,  SURF_ID='2'/ 
&OBST XB= -3120,-3090,-1113,-1143,1229,1377,  SURF_ID='2'/ 
&OBST XB= -3120,-3090,-1143,-1173,1229,1372,  SURF_ID='2'/ 
&OBST XB= -3120,-3090,-1173,-1203,1229,1364,  SURF_ID='2'/ 
&OBST XB= -3120,-3090,-1203,-1233,1229,1334,  SURF_ID='2'/ 
&OBST XB= -3120,-3090,-1233,-1263,1229,1338,  SURF_ID='9'/ 
&OBST XB= -3120,-3090,-1263,-1293,1229,1340,  SURF_ID='2'/ 
&OBST XB= -3120,-3090,-1293,-1323,1229,1340,  SURF_ID='2'/ 
&OBST XB= -3120,-3090,-1323,-1353,1229,1335,  SURF_ID='2'/ 
&OBST XB= -3120,-3090,-1353,-1383,1229,1323,  SURF_ID='2'/ 
&OBST XB= -3120,-3090,-1383,-1413,1229,1303,  SURF_ID='2'/ 
&OBST XB= -3120,-3090,-1413,-1443,1229,1299,  SURF_ID='2'/ 
&OBST XB= -3120,-3090,-1443,-1473,1229,1293,  SURF_ID='2'/ 
&OBST XB= -3120,-3090,-1473,-1503,1229,1291,  SURF_ID='9'/ 
&OBST XB= -3120,-3090,-1503,-1533,1229,1291,  SURF_ID='9'/ 
&OBST XB= -3120,-3090,-1533,-1563,1229,1284,  SURF_ID='2'/ 
&OBST XB= -3120,-3090,-1563,-1593,1229,1290,  SURF_ID='2'/ 
&OBST XB= -3120,-3090,-1593,-1623,1229,1295,  SURF_ID='2'/ 
&OBST XB= -3120,-3090,-1623,-1653,1229,1296,  SURF_ID='2'/ 
&OBST XB= -3120,-3090,-1653,-1683,1229,1277,  SURF_ID='2'/ 
&OBST XB= -3120,-3090,-1683,-1713,1229,1275,  SURF_ID='2'/ 
&OBST XB= -3120,-3090,-1713,-1743,1229,1275,  SURF_ID='2'/ 
&OBST XB= -3120,-3090,-1743,-1773,1229,1274,  SURF_ID='2'/ 
&OBST XB= -3120,-3090,-1773,-1803,1229,1274,  SURF_ID='2'/ 
&OBST XB= -3120,-3090,-1803,-1833,1229,1274,  SURF_ID='2'/ 
&OBST XB= -3120,-3090,-1833,-1863,1229,1262,  SURF_ID='2'/ 
&OBST XB= -3120,-3090,-1863,-1893,1229,1265,  SURF_ID='2'/ 
&OBST XB= -3120,-3090,-1893,-1923,1229,1256,  SURF_ID='8'/ 
&OBST XB= -3120,-3090,-1923,-1953,1229,1256,  SURF_ID='8'/ 
&OBST XB= -3120,-3090,-1953,-1983,1229,1246,  SURF_ID='8'/ 
&OBST XB= -3120,-3090,-1983,-2013,1229,1243,  SURF_ID='8'/ 
&OBST XB= -3120,-3090,-2013,-2043,1229,1243,  SURF_ID='2'/ 
&OBST XB= -3120,-3090,-2043,-2073,1229,1242,  SURF_ID='9'/ 
&OBST XB= -3120,-3090,-2073,-2103,1229,1240,  SURF_ID='9'/ 
&OBST XB= -3120,-3090,-2103,-2133,1229,1238,  SURF_ID='0'/ 
&OBST XB= -3120,-3090,-2133,-2163,1229,1238,  SURF_ID='0'/ 
&OBST XB= -3120,-3090,-2163,-2193,1229,1239,  SURF_ID='2'/ 
&OBST XB= -3120,-3090,-2193,-2223,1229,1244,  SURF_ID='2'/ 
&OBST XB= -3120,-3090,-2223,-2253,1229,1249,  SURF_ID='2'/ 
&OBST XB= -3120,-3090,-2253,-2283,1229,1250,  SURF_ID='2'/ 
&OBST XB= -3120,-3090,-2283,-2313,1229,1239,  SURF_ID='9'/ 
&OBST XB= -3120,-3090,-2313,-2343,1229,1243,  SURF_ID='2'/ 
&OBST XB= -3120,-3090,-2343,-2373,1229,1243,  SURF_ID='2'/ 
&OBST XB= -3120,-3090,-2373,-2403,1229,1247,  SURF_ID='2'/ 
&OBST XB= -3120,-3090,-2403,-2433,1229,1249,  SURF_ID='2'/ 
&OBST XB= -3120,-3090,-2433,-2463,1229,1237,  SURF_ID='2'/ 
&OBST XB= -3120,-3090,-2463,-2493,1229,1236,  SURF_ID='2'/ 
&OBST XB= -3120,-3090,-2493,-2523,1229,1237,  SURF_ID='0'/ 
&OBST XB= -3120,-3090,-2523,-2553,1229,1237,  SURF_ID='2'/ 
&OBST XB= -3120,-3090,-2553,-2583,1229,1237,  SURF_ID='2'/ 
&OBST XB= -3120,-3090,-2583,-2613,1229,1237,  SURF_ID='2'/ 
&OBST XB= -3120,-3090,-2613,-2643,1229,1273,  SURF_ID='9'/ 
&OBST XB= -3120,-3090,-2643,-2673,1229,1286,  SURF_ID='9'/ 
&OBST XB= -3120,-3090,-2673,-2703,1229,1304,  SURF_ID='2'/ 
&OBST XB= -3120,-3090,-2703,-2733,1229,1324,  SURF_ID='2'/ 
&OBST XB= -3120,-3090,-2733,-2763,1229,1347,  SURF_ID='9'/ 
&OBST XB= -3120,-3090,-2763,-2793,1229,1347,  SURF_ID='9'/ 
&OBST XB= -3120,-3090,-2793,-2823,1229,1362,  SURF_ID='9'/ 
&OBST XB= -3120,-3090,-2823,-2853,1229,1385,  SURF_ID='2'/ 
&OBST XB= -3120,-3090,-2853,-2883,1229,1392,  SURF_ID='2'/ 
&OBST XB= -3120,-3090,-2883,-2913,1229,1398,  SURF_ID='2'/ 
&OBST XB= -3120,-3090,-2913,-2943,1229,1416,  SURF_ID='2'/ 
&OBST XB= -3120,-3090,-2943,-2973,1229,1420,  SURF_ID='2'/ 
&OBST XB= -3120,-3090,-2973,-3003,1229,1420,  SURF_ID='2'/ 
&OBST XB= -3120,-3090,-3003,-3033,1229,1426,  SURF_ID='2'/ 
&OBST XB= -3120,-3090,-3033,-3063,1229,1430,  SURF_ID='2'/ 
&OBST XB= -3120,-3090,-3063,-3093,1229,1454,  SURF_ID='2'/ 
&OBST XB= -3120,-3090,-3093,-3123,1229,1461,  SURF_ID='9'/ 
&OBST XB= -3120,-3090,-3123,-3153,1229,1469,  SURF_ID='9'/ 
&OBST XB= -3120,-3090,-3153,-3183,1229,1475,  SURF_ID='9'/ 
&OBST XB= -3120,-3090,-3183,-3213,1229,1475,  SURF_ID='9'/ 
&OBST XB= -3120,-3090,-3213,-3243,1229,1494,  SURF_ID='5'/ 
&OBST XB= -3090,-3060,3237,3207,1229,1448,  SURF_ID='2'/ 
&OBST XB= -3090,-3060,3207,3177,1229,1434,  SURF_ID='9'/ 
&OBST XB= -3090,-3060,3177,3147,1229,1421,  SURF_ID='9'/ 
&OBST XB= -3090,-3060,3147,3117,1229,1427,  SURF_ID='5'/ 
&OBST XB= -3090,-3060,3117,3087,1229,1427,  SURF_ID='5'/ 
&OBST XB= -3090,-3060,3087,3057,1229,1404,  SURF_ID='2'/ 
&OBST XB= -3090,-3060,3057,3027,1229,1391,  SURF_ID='2'/ 
&OBST XB= -3090,-3060,3027,2997,1229,1380,  SURF_ID='2'/ 
&OBST XB= -3090,-3060,2997,2967,1229,1393,  SURF_ID='2'/ 
&OBST XB= -3090,-3060,2967,2937,1229,1408,  SURF_ID='5'/ 
&OBST XB= -3090,-3060,2937,2907,1229,1416,  SURF_ID='5'/ 
&OBST XB= -3090,-3060,2907,2877,1229,1416,  SURF_ID='5'/ 
&OBST XB= -3090,-3060,2877,2847,1229,1426,  SURF_ID='9'/ 
&OBST XB= -3090,-3060,2847,2817,1229,1453,  SURF_ID='2'/ 
&OBST XB= -3090,-3060,2817,2787,1229,1465,  SURF_ID='2'/ 
&OBST XB= -3090,-3060,2787,2757,1229,1474,  SURF_ID='9'/ 
&OBST XB= -3090,-3060,2757,2727,1229,1479,  SURF_ID='2'/ 
&OBST XB= -3090,-3060,2727,2697,1229,1484,  SURF_ID='2'/ 
&OBST XB= -3090,-3060,2697,2667,1229,1484,  SURF_ID='2'/ 
&OBST XB= -3090,-3060,2667,2637,1229,1485,  SURF_ID='2'/ 
&OBST XB= -3090,-3060,2637,2607,1229,1475,  SURF_ID='2'/ 
&OBST XB= -3090,-3060,2607,2577,1229,1468,  SURF_ID='2'/ 
&OBST XB= -3090,-3060,2577,2547,1229,1460,  SURF_ID='2'/ 
&OBST XB= -3090,-3060,2547,2517,1229,1449,  SURF_ID='2'/ 
&OBST XB= -3090,-3060,2517,2487,1229,1443,  SURF_ID='2'/ 
&OBST XB= -3090,-3060,2487,2457,1229,1443,  SURF_ID='2'/ 
&OBST XB= -3090,-3060,2457,2427,1229,1434,  SURF_ID='8'/ 
&OBST XB= -3090,-3060,2427,2397,1229,1425,  SURF_ID='8'/ 
&OBST XB= -3090,-3060,2397,2367,1229,1439,  SURF_ID='2'/ 
&OBST XB= -3090,-3060,2367,2337,1229,1432,  SURF_ID='5'/ 
&OBST XB= -3090,-3060,2337,2307,1229,1434,  SURF_ID='5'/ 
&OBST XB= -3090,-3060,2307,2277,1229,1433,  SURF_ID='9'/ 
&OBST XB= -3090,-3060,2277,2247,1229,1433,  SURF_ID='9'/ 
&OBST XB= -3090,-3060,2247,2217,1229,1428,  SURF_ID='9'/ 
&OBST XB= -3090,-3060,2217,2187,1229,1423,  SURF_ID='9'/ 
&OBST XB= -3090,-3060,2187,2157,1229,1418,  SURF_ID='2'/ 
&OBST XB= -3090,-3060,2157,2127,1229,1419,  SURF_ID='9'/ 
&OBST XB= -3090,-3060,2127,2097,1229,1420,  SURF_ID='5'/ 
&OBST XB= -3090,-3060,2097,2067,1229,1419,  SURF_ID='5'/ 
&OBST XB= -3090,-3060,2067,2037,1229,1419,  SURF_ID='5'/ 
&OBST XB= -3090,-3060,2037,2007,1229,1427,  SURF_ID='2'/ 
&OBST XB= -3090,-3060,2007,1977,1229,1425,  SURF_ID='2'/ 
&OBST XB= -3090,-3060,1977,1947,1229,1417,  SURF_ID='2'/ 
&OBST XB= -3090,-3060,1947,1917,1229,1409,  SURF_ID='2'/ 
&OBST XB= -3090,-3060,1917,1887,1229,1406,  SURF_ID='5'/ 
&OBST XB= -3090,-3060,1887,1857,1229,1401,  SURF_ID='5'/ 
&OBST XB= -3090,-3060,1857,1827,1229,1401,  SURF_ID='5'/ 
&OBST XB= -3090,-3060,1827,1797,1229,1395,  SURF_ID='2'/ 
&OBST XB= -3090,-3060,1797,1767,1229,1393,  SURF_ID='2'/ 
&OBST XB= -3090,-3060,1767,1737,1229,1395,  SURF_ID='2'/ 
&OBST XB= -3090,-3060,1737,1707,1229,1393,  SURF_ID='5'/ 
&OBST XB= -3090,-3060,1707,1677,1229,1424,  SURF_ID='5'/ 
&OBST XB= -3090,-3060,1677,1647,1229,1435,  SURF_ID='5'/ 
&OBST XB= -3090,-3060,1647,1617,1229,1435,  SURF_ID='5'/ 
&OBST XB= -3090,-3060,1617,1587,1229,1451,  SURF_ID='5'/ 
&OBST XB= -3090,-3060,1587,1557,1229,1464,  SURF_ID='5'/ 
&OBST XB= -3090,-3060,1557,1527,1229,1478,  SURF_ID='5'/ 
&OBST XB= -3090,-3060,1527,1497,1229,1489,  SURF_ID='5'/ 
&OBST XB= -3090,-3060,1497,1467,1229,1499,  SURF_ID='2'/ 
&OBST XB= -3090,-3060,1467,1437,1229,1503,  SURF_ID='2'/ 
&OBST XB= -3090,-3060,1437,1407,1229,1503,  SURF_ID='2'/ 
&OBST XB= -3090,-3060,1407,1377,1229,1519,  SURF_ID='9'/ 
&OBST XB= -3090,-3060,1377,1347,1229,1526,  SURF_ID='5'/ 
&OBST XB= -3090,-3060,1347,1317,1229,1534,  SURF_ID='5'/ 
&OBST XB= -3090,-3060,1317,1287,1229,1540,  SURF_ID='8'/ 
&OBST XB= -3090,-3060,1287,1257,1229,1554,  SURF_ID='5'/ 
&OBST XB= -3090,-3060,1257,1227,1229,1572,  SURF_ID='5'/ 
&OBST XB= -3090,-3060,1227,1197,1229,1572,  SURF_ID='5'/ 
&OBST XB= -3090,-3060,1197,1167,1229,1579,  SURF_ID='2'/ 
&OBST XB= -3090,-3060,1167,1137,1229,1585,  SURF_ID='2'/ 
&OBST XB= -3090,-3060,1137,1107,1229,1589,  SURF_ID='2'/ 
&OBST XB= -3090,-3060,1107,1077,1229,1584,  SURF_ID='2'/ 
&OBST XB= -3090,-3060,1077,1047,1229,1585,  SURF_ID='2'/ 
&OBST XB= -3090,-3060,1047,1017,1229,1581,  SURF_ID='2'/ 
&OBST XB= -3090,-3060,1017,987,1229,1581,  SURF_ID='2'/ 
&OBST XB= -3090,-3060,987,957,1229,1576,  SURF_ID='2'/ 
&OBST XB= -3090,-3060,957,927,1229,1569,  SURF_ID='2'/ 
&OBST XB= -3090,-3060,927,897,1229,1576,  SURF_ID='2'/ 
&OBST XB= -3090,-3060,897,867,1229,1578,  SURF_ID='2'/ 
&OBST XB= -3090,-3060,867,837,1229,1575,  SURF_ID='2'/ 
&OBST XB= -3090,-3060,837,807,1229,1559,  SURF_ID='2'/ 
&OBST XB= -3090,-3060,807,777,1229,1559,  SURF_ID='2'/ 
&OBST XB= -3090,-3060,777,747,1229,1530,  SURF_ID='2'/ 
&OBST XB= -3090,-3060,747,717,1229,1524,  SURF_ID='2'/ 
&OBST XB= -3090,-3060,717,687,1229,1521,  SURF_ID='2'/ 
&OBST XB= -3090,-3060,687,657,1229,1519,  SURF_ID='2'/ 
&OBST XB= -3090,-3060,657,627,1229,1506,  SURF_ID='2'/ 
&OBST XB= -3090,-3060,627,597,1229,1507,  SURF_ID='2'/ 
&OBST XB= -3090,-3060,597,567,1229,1507,  SURF_ID='2'/ 
&OBST XB= -3090,-3060,567,537,1229,1500,  SURF_ID='2'/ 
&OBST XB= -3090,-3060,537,507,1229,1494,  SURF_ID='2'/ 
&OBST XB= -3090,-3060,507,477,1229,1477,  SURF_ID='2'/ 
&OBST XB= -3090,-3060,477,447,1229,1464,  SURF_ID='2'/ 
&OBST XB= -3090,-3060,447,417,1229,1454,  SURF_ID='9'/ 
&OBST XB= -3090,-3060,417,387,1229,1454,  SURF_ID='9'/ 
&OBST XB= -3090,-3060,387,357,1229,1454,  SURF_ID='9'/ 
&OBST XB= -3090,-3060,357,327,1229,1466,  SURF_ID='9'/ 
&OBST XB= -3090,-3060,327,297,1229,1501,  SURF_ID='8'/ 
&OBST XB= -3090,-3060,297,267,1229,1509,  SURF_ID='2'/ 
&OBST XB= -3090,-3060,267,237,1229,1515,  SURF_ID='2'/ 
&OBST XB= -3090,-3060,237,207,1229,1522,  SURF_ID='2'/ 
&OBST XB= -3090,-3060,207,177,1229,1537,  SURF_ID='2'/ 
&OBST XB= -3090,-3060,177,147,1229,1537,  SURF_ID='2'/ 
&OBST XB= -3090,-3060,147,117,1229,1544,  SURF_ID='2'/ 
&OBST XB= -3090,-3060,117,87,1229,1559,  SURF_ID='2'/ 
&OBST XB= -3090,-3060,87,57,1229,1565,  SURF_ID='2'/ 
&OBST XB= -3090,-3060,57,27,1229,1557,  SURF_ID='2'/ 
&OBST XB= -3090,-3060,27,-3,1229,1542,  SURF_ID='2'/ 
&OBST XB= -3090,-3060,-3,-33,1229,1534,  SURF_ID='2'/ 
&OBST XB= -3090,-3060,-33,-63,1229,1534,  SURF_ID='2'/ 
&OBST XB= -3090,-3060,-63,-93,1229,1532,  SURF_ID='2'/ 
&OBST XB= -3090,-3060,-93,-123,1229,1531,  SURF_ID='2'/ 
&OBST XB= -3090,-3060,-123,-153,1229,1522,  SURF_ID='2'/ 
&OBST XB= -3090,-3060,-153,-183,1229,1522,  SURF_ID='2'/ 
&OBST XB= -3090,-3060,-183,-213,1229,1523,  SURF_ID='2'/ 
&OBST XB= -3090,-3060,-213,-243,1229,1526,  SURF_ID='2'/ 
&OBST XB= -3090,-3060,-243,-273,1229,1526,  SURF_ID='2'/ 
&OBST XB= -3090,-3060,-273,-303,1229,1525,  SURF_ID='2'/ 
&OBST XB= -3090,-3060,-303,-333,1229,1522,  SURF_ID='2'/ 
&OBST XB= -3090,-3060,-333,-363,1229,1519,  SURF_ID='2'/ 
&OBST XB= -3090,-3060,-363,-393,1229,1514,  SURF_ID='2'/ 
&OBST XB= -3090,-3060,-393,-423,1229,1511,  SURF_ID='2'/ 
&OBST XB= -3090,-3060,-423,-453,1229,1503,  SURF_ID='2'/ 
&OBST XB= -3090,-3060,-453,-483,1229,1503,  SURF_ID='2'/ 
&OBST XB= -3090,-3060,-483,-513,1229,1493,  SURF_ID='2'/ 
&OBST XB= -3090,-3060,-513,-543,1229,1481,  SURF_ID='2'/ 
&OBST XB= -3090,-3060,-543,-573,1229,1470,  SURF_ID='2'/ 
&OBST XB= -3090,-3060,-573,-603,1229,1447,  SURF_ID='8'/ 
&OBST XB= -3090,-3060,-603,-633,1229,1438,  SURF_ID='2'/ 
&OBST XB= -3090,-3060,-633,-663,1229,1428,  SURF_ID='2'/ 
&OBST XB= -3090,-3060,-663,-693,1229,1428,  SURF_ID='2'/ 
&OBST XB= -3090,-3060,-693,-723,1229,1418,  SURF_ID='2'/ 
&OBST XB= -3090,-3060,-723,-753,1229,1399,  SURF_ID='5'/ 
&OBST XB= -3090,-3060,-753,-783,1229,1391,  SURF_ID='5'/ 
&OBST XB= -3090,-3060,-783,-813,1229,1386,  SURF_ID='2'/ 
&OBST XB= -3090,-3060,-813,-843,1229,1382,  SURF_ID='2'/ 
&OBST XB= -3090,-3060,-843,-873,1229,1380,  SURF_ID='2'/ 
&OBST XB= -3090,-3060,-873,-903,1229,1380,  SURF_ID='2'/ 
&OBST XB= -3090,-3060,-903,-933,1229,1376,  SURF_ID='2'/ 
&OBST XB= -3090,-3060,-933,-963,1229,1378,  SURF_ID='2'/ 
&OBST XB= -3090,-3060,-963,-993,1229,1378,  SURF_ID='2'/ 
&OBST XB= -3090,-3060,-993,-1023,1229,1376,  SURF_ID='2'/ 
&OBST XB= -3090,-3060,-1023,-1053,1229,1365,  SURF_ID='2'/ 
&OBST XB= -3090,-3060,-1053,-1083,1229,1365,  SURF_ID='2'/ 
&OBST XB= -3090,-3060,-1083,-1113,1229,1365,  SURF_ID='2'/ 
&OBST XB= -3090,-3060,-1113,-1143,1229,1366,  SURF_ID='2'/ 
&OBST XB= -3090,-3060,-1143,-1173,1229,1363,  SURF_ID='2'/ 
&OBST XB= -3090,-3060,-1173,-1203,1229,1354,  SURF_ID='2'/ 
&OBST XB= -3090,-3060,-1203,-1233,1229,1334,  SURF_ID='2'/ 
&OBST XB= -3090,-3060,-1233,-1263,1229,1325,  SURF_ID='2'/ 
&OBST XB= -3090,-3060,-1263,-1293,1229,1334,  SURF_ID='2'/ 
&OBST XB= -3090,-3060,-1293,-1323,1229,1334,  SURF_ID='2'/ 
&OBST XB= -3090,-3060,-1323,-1353,1229,1327,  SURF_ID='2'/ 
&OBST XB= -3090,-3060,-1353,-1383,1229,1302,  SURF_ID='2'/ 
&OBST XB= -3090,-3060,-1383,-1413,1229,1291,  SURF_ID='2'/ 
&OBST XB= -3090,-3060,-1413,-1443,1229,1285,  SURF_ID='2'/ 
&OBST XB= -3090,-3060,-1443,-1473,1229,1281,  SURF_ID='2'/ 
&OBST XB= -3090,-3060,-1473,-1503,1229,1269,  SURF_ID='8'/ 
&OBST XB= -3090,-3060,-1503,-1533,1229,1269,  SURF_ID='8'/ 
&OBST XB= -3090,-3060,-1533,-1563,1229,1274,  SURF_ID='2'/ 
&OBST XB= -3090,-3060,-1563,-1593,1229,1278,  SURF_ID='1'/ 
&OBST XB= -3090,-3060,-1593,-1623,1229,1280,  SURF_ID='2'/ 
&OBST XB= -3090,-3060,-1623,-1653,1229,1280,  SURF_ID='2'/ 
&OBST XB= -3090,-3060,-1653,-1683,1229,1263,  SURF_ID='0'/ 
&OBST XB= -3090,-3060,-1683,-1713,1229,1263,  SURF_ID='0'/ 
&OBST XB= -3090,-3060,-1713,-1743,1229,1263,  SURF_ID='0'/ 
&OBST XB= -3090,-3060,-1743,-1773,1229,1263,  SURF_ID='2'/ 
&OBST XB= -3090,-3060,-1773,-1803,1229,1261,  SURF_ID='2'/ 
&OBST XB= -3090,-3060,-1803,-1833,1229,1251,  SURF_ID='0'/ 
&OBST XB= -3090,-3060,-1833,-1863,1229,1252,  SURF_ID='0'/ 
&OBST XB= -3090,-3060,-1863,-1893,1229,1253,  SURF_ID='0'/ 
&OBST XB= -3090,-3060,-1893,-1923,1229,1253,  SURF_ID='8'/ 
&OBST XB= -3090,-3060,-1923,-1953,1229,1253,  SURF_ID='8'/ 
&OBST XB= -3090,-3060,-1953,-1983,1229,1250,  SURF_ID='8'/ 
&OBST XB= -3090,-3060,-1983,-2013,1229,1239,  SURF_ID='0'/ 
&OBST XB= -3090,-3060,-2013,-2043,1229,1240,  SURF_ID='0'/ 
&OBST XB= -3090,-3060,-2043,-2073,1229,1240,  SURF_ID='8'/ 
&OBST XB= -3090,-3060,-2073,-2103,1229,1239,  SURF_ID='8'/ 
&OBST XB= -3090,-3060,-2103,-2133,1229,1238,  SURF_ID='0'/ 
&OBST XB= -3090,-3060,-2133,-2163,1229,1238,  SURF_ID='0'/ 
&OBST XB= -3090,-3060,-2163,-2193,1229,1236,  SURF_ID='0'/ 
&OBST XB= -3090,-3060,-2193,-2223,1229,1231,  SURF_ID='0'/ 
&OBST XB= -3090,-3060,-2223,-2253,1229,1234,  SURF_ID='9'/ 
&OBST XB= -3090,-3060,-2253,-2283,1229,1230,  SURF_ID='0'/ 
&OBST XB= -3090,-3060,-2283,-2313,1229,1232,  SURF_ID='0'/ 
&OBST XB= -3090,-3060,-2313,-2343,1229,1231,  SURF_ID='0'/ 
&OBST XB= -3090,-3060,-2343,-2373,1229,1231,  SURF_ID='0'/ 
&OBST XB= -3090,-3060,-2373,-2403,1229,1231,  SURF_ID='0'/ 
&OBST XB= -3090,-3060,-2403,-2433,1229,1235,  SURF_ID='2'/ 
&OBST XB= -3090,-3060,-2433,-2463,1229,1236,  SURF_ID='1'/ 
&OBST XB= -3090,-3060,-2463,-2493,1229,1239,  SURF_ID='0'/ 
&OBST XB= -3090,-3060,-2493,-2523,1229,1240,  SURF_ID='2'/ 
&OBST XB= -3090,-3060,-2523,-2553,1229,1239,  SURF_ID='2'/ 
&OBST XB= -3090,-3060,-2553,-2583,1229,1239,  SURF_ID='2'/ 
&OBST XB= -3090,-3060,-2583,-2613,1229,1253,  SURF_ID='2'/ 
&OBST XB= -3090,-3060,-2613,-2643,1229,1268,  SURF_ID='5'/ 
&OBST XB= -3090,-3060,-2643,-2673,1229,1294,  SURF_ID='2'/ 
&OBST XB= -3090,-3060,-2673,-2703,1229,1310,  SURF_ID='2'/ 
&OBST XB= -3090,-3060,-2703,-2733,1229,1338,  SURF_ID='2'/ 
&OBST XB= -3090,-3060,-2733,-2763,1229,1355,  SURF_ID='2'/ 
&OBST XB= -3090,-3060,-2763,-2793,1229,1355,  SURF_ID='2'/ 
&OBST XB= -3090,-3060,-2793,-2823,1229,1372,  SURF_ID='9'/ 
&OBST XB= -3090,-3060,-2823,-2853,1229,1389,  SURF_ID='9'/ 
&OBST XB= -3090,-3060,-2853,-2883,1229,1402,  SURF_ID='9'/ 
&OBST XB= -3090,-3060,-2883,-2913,1229,1427,  SURF_ID='2'/ 
&OBST XB= -3090,-3060,-2913,-2943,1229,1431,  SURF_ID='2'/ 
&OBST XB= -3090,-3060,-2943,-2973,1229,1437,  SURF_ID='2'/ 
&OBST XB= -3090,-3060,-2973,-3003,1229,1437,  SURF_ID='2'/ 
&OBST XB= -3090,-3060,-3003,-3033,1229,1441,  SURF_ID='2'/ 
&OBST XB= -3090,-3060,-3033,-3063,1229,1459,  SURF_ID='9'/ 
&OBST XB= -3090,-3060,-3063,-3093,1229,1464,  SURF_ID='9'/ 
&OBST XB= -3090,-3060,-3093,-3123,1229,1474,  SURF_ID='9'/ 
&OBST XB= -3090,-3060,-3123,-3153,1229,1480,  SURF_ID='5'/ 
&OBST XB= -3090,-3060,-3153,-3183,1229,1487,  SURF_ID='2'/ 
&OBST XB= -3090,-3060,-3183,-3213,1229,1487,  SURF_ID='2'/ 
&OBST XB= -3090,-3060,-3213,-3243,1229,1506,  SURF_ID='5'/ 
&OBST XB= -3060,-3030,3237,3207,1229,1445,  SURF_ID='2'/ 
&OBST XB= -3060,-3030,3207,3177,1229,1437,  SURF_ID='2'/ 
&OBST XB= -3060,-3030,3177,3147,1229,1433,  SURF_ID='5'/ 
&OBST XB= -3060,-3030,3147,3117,1229,1432,  SURF_ID='2'/ 
&OBST XB= -3060,-3030,3117,3087,1229,1432,  SURF_ID='2'/ 
&OBST XB= -3060,-3030,3087,3057,1229,1419,  SURF_ID='2'/ 
&OBST XB= -3060,-3030,3057,3027,1229,1406,  SURF_ID='9'/ 
&OBST XB= -3060,-3030,3027,2997,1229,1389,  SURF_ID='2'/ 
&OBST XB= -3060,-3030,2997,2967,1229,1409,  SURF_ID='9'/ 
&OBST XB= -3060,-3030,2967,2937,1229,1418,  SURF_ID='8'/ 
&OBST XB= -3060,-3030,2937,2907,1229,1426,  SURF_ID='5'/ 
&OBST XB= -3060,-3030,2907,2877,1229,1426,  SURF_ID='5'/ 
&OBST XB= -3060,-3030,2877,2847,1229,1433,  SURF_ID='5'/ 
&OBST XB= -3060,-3030,2847,2817,1229,1440,  SURF_ID='5'/ 
&OBST XB= -3060,-3030,2817,2787,1229,1465,  SURF_ID='5'/ 
&OBST XB= -3060,-3030,2787,2757,1229,1473,  SURF_ID='2'/ 
&OBST XB= -3060,-3030,2757,2727,1229,1480,  SURF_ID='2'/ 
&OBST XB= -3060,-3030,2727,2697,1229,1486,  SURF_ID='2'/ 
&OBST XB= -3060,-3030,2697,2667,1229,1486,  SURF_ID='2'/ 
&OBST XB= -3060,-3030,2667,2637,1229,1480,  SURF_ID='2'/ 
&OBST XB= -3060,-3030,2637,2607,1229,1478,  SURF_ID='2'/ 
&OBST XB= -3060,-3030,2607,2577,1229,1474,  SURF_ID='2'/ 
&OBST XB= -3060,-3030,2577,2547,1229,1461,  SURF_ID='2'/ 
&OBST XB= -3060,-3030,2547,2517,1229,1452,  SURF_ID='9'/ 
&OBST XB= -3060,-3030,2517,2487,1229,1443,  SURF_ID='9'/ 
&OBST XB= -3060,-3030,2487,2457,1229,1443,  SURF_ID='9'/ 
&OBST XB= -3060,-3030,2457,2427,1229,1435,  SURF_ID='5'/ 
&OBST XB= -3060,-3030,2427,2397,1229,1430,  SURF_ID='8'/ 
&OBST XB= -3060,-3030,2397,2367,1229,1428,  SURF_ID='5'/ 
&OBST XB= -3060,-3030,2367,2337,1229,1428,  SURF_ID='2'/ 
&OBST XB= -3060,-3030,2337,2307,1229,1427,  SURF_ID='2'/ 
&OBST XB= -3060,-3030,2307,2277,1229,1427,  SURF_ID='9'/ 
&OBST XB= -3060,-3030,2277,2247,1229,1427,  SURF_ID='9'/ 
&OBST XB= -3060,-3030,2247,2217,1229,1422,  SURF_ID='5'/ 
&OBST XB= -3060,-3030,2217,2187,1229,1428,  SURF_ID='9'/ 
&OBST XB= -3060,-3030,2187,2157,1229,1427,  SURF_ID='2'/ 
&OBST XB= -3060,-3030,2157,2127,1229,1424,  SURF_ID='5'/ 
&OBST XB= -3060,-3030,2127,2097,1229,1425,  SURF_ID='2'/ 
&OBST XB= -3060,-3030,2097,2067,1229,1427,  SURF_ID='2'/ 
&OBST XB= -3060,-3030,2067,2037,1229,1427,  SURF_ID='2'/ 
&OBST XB= -3060,-3030,2037,2007,1229,1434,  SURF_ID='9'/ 
&OBST XB= -3060,-3030,2007,1977,1229,1431,  SURF_ID='9'/ 
&OBST XB= -3060,-3030,1977,1947,1229,1424,  SURF_ID='9'/ 
&OBST XB= -3060,-3030,1947,1917,1229,1419,  SURF_ID='2'/ 
&OBST XB= -3060,-3030,1917,1887,1229,1419,  SURF_ID='2'/ 
&OBST XB= -3060,-3030,1887,1857,1229,1408,  SURF_ID='2'/ 
&OBST XB= -3060,-3030,1857,1827,1229,1408,  SURF_ID='2'/ 
&OBST XB= -3060,-3030,1827,1797,1229,1396,  SURF_ID='2'/ 
&OBST XB= -3060,-3030,1797,1767,1229,1384,  SURF_ID='8'/ 
&OBST XB= -3060,-3030,1767,1737,1229,1380,  SURF_ID='2'/ 
[...]
&OBST XB= 3180,3210,897,867,1229,1306,  SURF_ID='0'/ 
&OBST XB= 3180,3210,867,837,1229,1293,  SURF_ID='5'/ 
&OBST XB= 3180,3210,837,807,1229,1295,  SURF_ID='5'/ 
&OBST XB= 3180,3210,807,777,1229,1295,  SURF_ID='5'/ 
&OBST XB= 3180,3210,777,747,1229,1309,  SURF_ID='2'/ 
&OBST XB= 3180,3210,747,717,1229,1324,  SURF_ID='9'/ 
&OBST XB= 3180,3210,717,687,1229,1347,  SURF_ID='9'/ 
&OBST XB= 3180,3210,687,657,1229,1369,  SURF_ID='9'/ 
&OBST XB= 3180,3210,657,627,1229,1376,  SURF_ID='9'/ 
&OBST XB= 3180,3210,627,597,1229,1384,  SURF_ID='9'/ 
&OBST XB= 3180,3210,597,567,1229,1384,  SURF_ID='9'/ 
&OBST XB= 3180,3210,567,537,1229,1391,  SURF_ID='9'/ 
&OBST XB= 3180,3210,537,507,1229,1406,  SURF_ID='2'/ 
&OBST XB= 3180,3210,507,477,1229,1418,  SURF_ID='2'/ 
&OBST XB= 3180,3210,477,447,1229,1422,  SURF_ID='2'/ 
&OBST XB= 3180,3210,447,417,1229,1425,  SURF_ID='2'/ 
&OBST XB= 3180,3210,417,387,1229,1427,  SURF_ID='9'/ 
&OBST XB= 3180,3210,387,357,1229,1427,  SURF_ID='9'/ 
&OBST XB= 3180,3210,357,327,1229,1430,  SURF_ID='2'/ 
&OBST XB= 3180,3210,327,297,1229,1426,  SURF_ID='2'/ 
&OBST XB= 3180,3210,297,267,1229,1419,  SURF_ID='2'/ 
&OBST XB= 3180,3210,267,237,1229,1404,  SURF_ID='2'/ 
&OBST XB= 3180,3210,237,207,1229,1395,  SURF_ID='2'/ 
&OBST XB= 3180,3210,207,177,1229,1392,  SURF_ID='2'/ 
&OBST XB= 3180,3210,177,147,1229,1392,  SURF_ID='2'/ 
&OBST XB= 3180,3210,147,117,1229,1395,  SURF_ID='2'/ 
&OBST XB= 3180,3210,117,87,1229,1397,  SURF_ID='2'/ 
&OBST XB= 3180,3210,87,57,1229,1410,  SURF_ID='2'/ 
&OBST XB= 3180,3210,57,27,1229,1401,  SURF_ID='9'/ 
&OBST XB= 3180,3210,27,-3,1229,1388,  SURF_ID='2'/ 
&OBST XB= 3180,3210,-3,-33,1229,1373,  SURF_ID='2'/ 
&OBST XB= 3180,3210,-33,-63,1229,1373,  SURF_ID='2'/ 
&OBST XB= 3180,3210,-63,-93,1229,1353,  SURF_ID='2'/ 
&OBST XB= 3180,3210,-93,-123,1229,1330,  SURF_ID='8'/ 
&OBST XB= 3180,3210,-123,-153,1229,1323,  SURF_ID='2'/ 
&OBST XB= 3180,3210,-153,-183,1229,1326,  SURF_ID='2'/ 
&OBST XB= 3180,3210,-183,-213,1229,1355,  SURF_ID='2'/ 
&OBST XB= 3180,3210,-213,-243,1229,1372,  SURF_ID='2'/ 
&OBST XB= 3180,3210,-243,-273,1229,1372,  SURF_ID='2'/ 
&OBST XB= 3180,3210,-273,-303,1229,1381,  SURF_ID='2'/ 
&OBST XB= 3180,3210,-303,-333,1229,1385,  SURF_ID='2'/ 
&OBST XB= 3180,3210,-333,-363,1229,1390,  SURF_ID='2'/ 
&OBST XB= 3180,3210,-363,-393,1229,1392,  SURF_ID='2'/ 
&OBST XB= 3180,3210,-393,-423,1229,1383,  SURF_ID='2'/ 
&OBST XB= 3180,3210,-423,-453,1229,1380,  SURF_ID='5'/ 
&OBST XB= 3180,3210,-453,-483,1229,1380,  SURF_ID='5'/ 
&OBST XB= 3180,3210,-483,-513,1229,1382,  SURF_ID='2'/ 
&OBST XB= 3180,3210,-513,-543,1229,1389,  SURF_ID='5'/ 
&OBST XB= 3180,3210,-543,-573,1229,1399,  SURF_ID='5'/ 
&OBST XB= 3180,3210,-573,-603,1229,1404,  SURF_ID='5'/ 
&OBST XB= 3180,3210,-603,-633,1229,1404,  SURF_ID='5'/ 
&OBST XB= 3180,3210,-633,-663,1229,1403,  SURF_ID='2'/ 
&OBST XB= 3180,3210,-663,-693,1229,1403,  SURF_ID='2'/ 
&OBST XB= 3180,3210,-693,-723,1229,1408,  SURF_ID='2'/ 
&OBST XB= 3180,3210,-723,-753,1229,1417,  SURF_ID='2'/ 
&OBST XB= 3180,3210,-753,-783,1229,1421,  SURF_ID='2'/ 
&OBST XB= 3180,3210,-783,-813,1229,1420,  SURF_ID='2'/ 
&OBST XB= 3180,3210,-813,-843,1229,1418,  SURF_ID='2'/ 
&OBST XB= 3180,3210,-843,-873,1229,1419,  SURF_ID='9'/ 
&OBST XB= 3180,3210,-873,-903,1229,1419,  SURF_ID='9'/ 
&OBST XB= 3180,3210,-903,-933,1229,1400,  SURF_ID='2'/ 
&OBST XB= 3180,3210,-933,-963,1229,1391,  SURF_ID='5'/ 
&OBST XB= 3180,3210,-963,-993,1229,1394,  SURF_ID='2'/ 
&OBST XB= 3180,3210,-993,-1023,1229,1408,  SURF_ID='2'/ 
&OBST XB= 3180,3210,-1023,-1053,1229,1424,  SURF_ID='2'/ 
&OBST XB= 3180,3210,-1053,-1083,1229,1443,  SURF_ID='5'/ 
&OBST XB= 3180,3210,-1083,-1113,1229,1443,  SURF_ID='5'/ 
&OBST XB= 3180,3210,-1113,-1143,1229,1465,  SURF_ID='5'/ 
&OBST XB= 3180,3210,-1143,-1173,1229,1473,  SURF_ID='5'/ 
&OBST XB= 3180,3210,-1173,-1203,1229,1480,  SURF_ID='5'/ 
&OBST XB= 3180,3210,-1203,-1233,1229,1472,  SURF_ID='5'/ 
&OBST XB= 3180,3210,-1233,-1263,1229,1459,  SURF_ID='2'/ 
&OBST XB= 3180,3210,-1263,-1293,1229,1451,  SURF_ID='2'/ 
&OBST XB= 3180,3210,-1293,-1323,1229,1451,  SURF_ID='2'/ 
&OBST XB= 3180,3210,-1323,-1353,1229,1467,  SURF_ID='5'/ 
&OBST XB= 3180,3210,-1353,-1383,1229,1488,  SURF_ID='5'/ 
&OBST XB= 3180,3210,-1383,-1413,1229,1496,  SURF_ID='5'/ 
&OBST XB= 3180,3210,-1413,-1443,1229,1503,  SURF_ID='5'/ 
&OBST XB= 3180,3210,-1443,-1473,1229,1517,  SURF_ID='2'/ 
&OBST XB= 3180,3210,-1473,-1503,1229,1518,  SURF_ID='9'/ 
&OBST XB= 3180,3210,-1503,-1533,1229,1518,  SURF_ID='9'/ 
&OBST XB= 3180,3210,-1533,-1563,1229,1517,  SURF_ID='2'/ 
&OBST XB= 3180,3210,-1563,-1593,1229,1499,  SURF_ID='9'/ 
&OBST XB= 3180,3210,-1593,-1623,1229,1500,  SURF_ID='2'/ 
&OBST XB= 3180,3210,-1623,-1653,1229,1526,  SURF_ID='5'/ 
&OBST XB= 3180,3210,-1653,-1683,1229,1535,  SURF_ID='8'/ 
&OBST XB= 3180,3210,-1683,-1713,1229,1543,  SURF_ID='5'/ 
&OBST XB= 3180,3210,-1713,-1743,1229,1543,  SURF_ID='5'/ 
&OBST XB= 3180,3210,-1743,-1773,1229,1543,  SURF_ID='8'/ 
&OBST XB= 3180,3210,-1773,-1803,1229,1533,  SURF_ID='5'/ 
&OBST XB= 3180,3210,-1803,-1833,1229,1503,  SURF_ID='5'/ 
&OBST XB= 3180,3210,-1833,-1863,1229,1490,  SURF_ID='5'/ 
&OBST XB= 3180,3210,-1863,-1893,1229,1477,  SURF_ID='5'/ 
&OBST XB= 3180,3210,-1893,-1923,1229,1470,  SURF_ID='9'/ 
&OBST XB= 3180,3210,-1923,-1953,1229,1470,  SURF_ID='9'/ 
&OBST XB= 3180,3210,-1953,-1983,1229,1475,  SURF_ID='2'/ 
&OBST XB= 3180,3210,-1983,-2013,1229,1466,  SURF_ID='2'/ 
&OBST XB= 3180,3210,-2013,-2043,1229,1449,  SURF_ID='2'/ 
&OBST XB= 3180,3210,-2043,-2073,1229,1438,  SURF_ID='2'/ 
&OBST XB= 3180,3210,-2073,-2103,1229,1429,  SURF_ID='2'/ 
&OBST XB= 3180,3210,-2103,-2133,1229,1421,  SURF_ID='2'/ 
&OBST XB= 3180,3210,-2133,-2163,1229,1421,  SURF_ID='2'/ 
&OBST XB= 3180,3210,-2163,-2193,1229,1414,  SURF_ID='2'/ 
&OBST XB= 3180,3210,-2193,-2223,1229,1410,  SURF_ID='2'/ 
&OBST XB= 3180,3210,-2223,-2253,1229,1412,  SURF_ID='2'/ 
&OBST XB= 3180,3210,-2253,-2283,1229,1388,  SURF_ID='2'/ 
&OBST XB= 3180,3210,-2283,-2313,1229,1369,  SURF_ID='5'/ 
&OBST XB= 3180,3210,-2313,-2343,1229,1347,  SURF_ID='2'/ 
&OBST XB= 3180,3210,-2343,-2373,1229,1347,  SURF_ID='2'/ 
&OBST XB= 3180,3210,-2373,-2403,1229,1354,  SURF_ID='2'/ 
&OBST XB= 3180,3210,-2403,-2433,1229,1359,  SURF_ID='2'/ 
&OBST XB= 3180,3210,-2433,-2463,1229,1375,  SURF_ID='2'/ 
&OBST XB= 3180,3210,-2463,-2493,1229,1396,  SURF_ID='2'/ 
&OBST XB= 3180,3210,-2493,-2523,1229,1420,  SURF_ID='2'/ 
&OBST XB= 3180,3210,-2523,-2553,1229,1416,  SURF_ID='2'/ 
&OBST XB= 3180,3210,-2553,-2583,1229,1416,  SURF_ID='2'/ 
&OBST XB= 3180,3210,-2583,-2613,1229,1427,  SURF_ID='2'/ 
&OBST XB= 3180,3210,-2613,-2643,1229,1441,  SURF_ID='9'/ 
&OBST XB= 3180,3210,-2643,-2673,1229,1457,  SURF_ID='2'/ 
&OBST XB= 3180,3210,-2673,-2703,1229,1469,  SURF_ID='2'/ 
&OBST XB= 3180,3210,-2703,-2733,1229,1481,  SURF_ID='5'/ 
&OBST XB= 3180,3210,-2733,-2763,1229,1488,  SURF_ID='2'/ 
&OBST XB= 3180,3210,-2763,-2793,1229,1488,  SURF_ID='2'/ 
&OBST XB= 3180,3210,-2793,-2823,1229,1493,  SURF_ID='2'/ 
&OBST XB= 3180,3210,-2823,-2853,1229,1496,  SURF_ID='2'/ 
&OBST XB= 3180,3210,-2853,-2883,1229,1488,  SURF_ID='2'/ 
&OBST XB= 3180,3210,-2883,-2913,1229,1492,  SURF_ID='2'/ 
&OBST XB= 3180,3210,-2913,-2943,1229,1501,  SURF_ID='2'/ 
&OBST XB= 3180,3210,-2943,-2973,1229,1527,  SURF_ID='2'/ 
&OBST XB= 3180,3210,-2973,-3003,1229,1527,  SURF_ID='2'/ 
&OBST XB= 3180,3210,-3003,-3033,1229,1532,  SURF_ID='2'/ 
&OBST XB= 3180,3210,-3033,-3063,1229,1538,  SURF_ID='2'/ 
&OBST XB= 3180,3210,-3063,-3093,1229,1541,  SURF_ID='2'/ 
&OBST XB= 3180,3210,-3093,-3123,1229,1544,  SURF_ID='2'/ 
&OBST XB= 3180,3210,-3123,-3153,1229,1546,  SURF_ID='2'/ 
&OBST XB= 3180,3210,-3153,-3183,1229,1529,  SURF_ID='2'/ 
&OBST XB= 3180,3210,-3183,-3213,1229,1529,  SURF_ID='2'/ 
&OBST XB= 3180,3210,-3213,-3243,1229,1522,  SURF_ID='2'/ 
&OBST XB= 3210,3240,3237,3207,1229,1588,  SURF_ID='2'/ 
&OBST XB= 3210,3240,3207,3177,1229,1581,  SURF_ID='2'/ 
&OBST XB= 3210,3240,3177,3147,1229,1567,  SURF_ID='2'/ 
&OBST XB= 3210,3240,3147,3117,1229,1558,  SURF_ID='5'/ 
&OBST XB= 3210,3240,3117,3087,1229,1558,  SURF_ID='5'/ 
&OBST XB= 3210,3240,3087,3057,1229,1550,  SURF_ID='2'/ 
&OBST XB= 3210,3240,3057,3027,1229,1543,  SURF_ID='2'/ 
&OBST XB= 3210,3240,3027,2997,1229,1535,  SURF_ID='2'/ 
&OBST XB= 3210,3240,2997,2967,1229,1520,  SURF_ID='2'/ 
&OBST XB= 3210,3240,2967,2937,1229,1512,  SURF_ID='2'/ 
&OBST XB= 3210,3240,2937,2907,1229,1506,  SURF_ID='2'/ 
&OBST XB= 3210,3240,2907,2877,1229,1506,  SURF_ID='2'/ 
&OBST XB= 3210,3240,2877,2847,1229,1505,  SURF_ID='2'/ 
&OBST XB= 3210,3240,2847,2817,1229,1490,  SURF_ID='2'/ 
&OBST XB= 3210,3240,2817,2787,1229,1476,  SURF_ID='2'/ 
&OBST XB= 3210,3240,2787,2757,1229,1466,  SURF_ID='2'/ 
&OBST XB= 3210,3240,2757,2727,1229,1451,  SURF_ID='2'/ 
&OBST XB= 3210,3240,2727,2697,1229,1438,  SURF_ID='5'/ 
&OBST XB= 3210,3240,2697,2667,1229,1438,  SURF_ID='5'/ 
&OBST XB= 3210,3240,2667,2637,1229,1433,  SURF_ID='5'/ 
&OBST XB= 3210,3240,2637,2607,1229,1428,  SURF_ID='5'/ 
&OBST XB= 3210,3240,2607,2577,1229,1423,  SURF_ID='8'/ 
&OBST XB= 3210,3240,2577,2547,1229,1424,  SURF_ID='5'/ 
&OBST XB= 3210,3240,2547,2517,1229,1429,  SURF_ID='8'/ 
&OBST XB= 3210,3240,2517,2487,1229,1443,  SURF_ID='8'/ 
&OBST XB= 3210,3240,2487,2457,1229,1443,  SURF_ID='8'/ 
&OBST XB= 3210,3240,2457,2427,1229,1449,  SURF_ID='8'/ 
&OBST XB= 3210,3240,2427,2397,1229,1454,  SURF_ID='8'/ 
&OBST XB= 3210,3240,2397,2367,1229,1455,  SURF_ID='8'/ 
&OBST XB= 3210,3240,2367,2337,1229,1448,  SURF_ID='2'/ 
&OBST XB= 3210,3240,2337,2307,1229,1442,  SURF_ID='2'/ 
&OBST XB= 3210,3240,2307,2277,1229,1428,  SURF_ID='8'/ 
&OBST XB= 3210,3240,2277,2247,1229,1428,  SURF_ID='8'/ 
&OBST XB= 3210,3240,2247,2217,1229,1413,  SURF_ID='9'/ 
&OBST XB= 3210,3240,2217,2187,1229,1405,  SURF_ID='9'/ 
&OBST XB= 3210,3240,2187,2157,1229,1397,  SURF_ID='9'/ 
&OBST XB= 3210,3240,2157,2127,1229,1390,  SURF_ID='2'/ 
&OBST XB= 3210,3240,2127,2097,1229,1382,  SURF_ID='2'/ 
&OBST XB= 3210,3240,2097,2067,1229,1363,  SURF_ID='5'/ 
&OBST XB= 3210,3240,2067,2037,1229,1363,  SURF_ID='5'/ 
&OBST XB= 3210,3240,2037,2007,1229,1347,  SURF_ID='5'/ 
&OBST XB= 3210,3240,2007,1977,1229,1340,  SURF_ID='5'/ 
&OBST XB= 3210,3240,1977,1947,1229,1339,  SURF_ID='5'/ 
&OBST XB= 3210,3240,1947,1917,1229,1344,  SURF_ID='8'/ 
&OBST XB= 3210,3240,1917,1887,1229,1342,  SURF_ID='8'/ 
&OBST XB= 3210,3240,1887,1857,1229,1340,  SURF_ID='5'/ 
&OBST XB= 3210,3240,1857,1827,1229,1340,  SURF_ID='5'/ 
&OBST XB= 3210,3240,1827,1797,1229,1332,  SURF_ID='5'/ 
&OBST XB= 3210,3240,1797,1767,1229,1336,  SURF_ID='5'/ 
&OBST XB= 3210,3240,1767,1737,1229,1326,  SURF_ID='5'/ 
&OBST XB= 3210,3240,1737,1707,1229,1317,  SURF_ID='5'/ 
&OBST XB= 3210,3240,1707,1677,1229,1314,  SURF_ID='8'/ 
&OBST XB= 3210,3240,1677,1647,1229,1315,  SURF_ID='8'/ 
&OBST XB= 3210,3240,1647,1617,1229,1315,  SURF_ID='8'/ 
&OBST XB= 3210,3240,1617,1587,1229,1314,  SURF_ID='5'/ 
&OBST XB= 3210,3240,1587,1557,1229,1328,  SURF_ID='2'/ 
&OBST XB= 3210,3240,1557,1527,1229,1331,  SURF_ID='2'/ 
&OBST XB= 3210,3240,1527,1497,1229,1335,  SURF_ID='9'/ 
&OBST XB= 3210,3240,1497,1467,1229,1343,  SURF_ID='2'/ 
&OBST XB= 3210,3240,1467,1437,1229,1350,  SURF_ID='2'/ 
&OBST XB= 3210,3240,1437,1407,1229,1350,  SURF_ID='2'/ 
&OBST XB= 3210,3240,1407,1377,1229,1354,  SURF_ID='9'/ 
&OBST XB= 3210,3240,1377,1347,1229,1347,  SURF_ID='9'/ 
&OBST XB= 3210,3240,1347,1317,1229,1339,  SURF_ID='2'/ 
&OBST XB= 3210,3240,1317,1287,1229,1331,  SURF_ID='2'/ 
&OBST XB= 3210,3240,1287,1257,1229,1333,  SURF_ID='2'/ 
&OBST XB= 3210,3240,1257,1227,1229,1331,  SURF_ID='2'/ 
&OBST XB= 3210,3240,1227,1197,1229,1331,  SURF_ID='2'/ 
&OBST XB= 3210,3240,1197,1167,1229,1324,  SURF_ID='2'/ 
&OBST XB= 3210,3240,1167,1137,1229,1307,  SURF_ID='2'/ 
&OBST XB= 3210,3240,1137,1107,1229,1305,  SURF_ID='2'/ 
&OBST XB= 3210,3240,1107,1077,1229,1315,  SURF_ID='2'/ 
&OBST XB= 3210,3240,1077,1047,1229,1325,  SURF_ID='2'/ 
&OBST XB= 3210,3240,1047,1017,1229,1321,  SURF_ID='2'/ 
&OBST XB= 3210,3240,1017,987,1229,1321,  SURF_ID='2'/ 
&OBST XB= 3210,3240,987,957,1229,1321,  SURF_ID='1'/ 
&OBST XB= 3210,3240,957,927,1229,1314,  SURF_ID='0'/ 
&OBST XB= 3210,3240,927,897,1229,1305,  SURF_ID='0'/ 
&OBST XB= 3210,3240,897,867,1229,1298,  SURF_ID='0'/ 
&OBST XB= 3210,3240,867,837,1229,1295,  SURF_ID='5'/ 
&OBST XB= 3210,3240,837,807,1229,1310,  SURF_ID='5'/ 
&OBST XB= 3210,3240,807,777,1229,1310,  SURF_ID='5'/ 
&OBST XB= 3210,3240,777,747,1229,1324,  SURF_ID='9'/ 
&OBST XB= 3210,3240,747,717,1229,1337,  SURF_ID='9'/ 
&OBST XB= 3210,3240,717,687,1229,1362,  SURF_ID='9'/ 
&OBST XB= 3210,3240,687,657,1229,1379,  SURF_ID='9'/ 
&OBST XB= 3210,3240,657,627,1229,1387,  SURF_ID='9'/ 
&OBST XB= 3210,3240,627,597,1229,1394,  SURF_ID='9'/ 
&OBST XB= 3210,3240,597,567,1229,1394,  SURF_ID='9'/ 
&OBST XB= 3210,3240,567,537,1229,1399,  SURF_ID='2'/ 
&OBST XB= 3210,3240,537,507,1229,1417,  SURF_ID='2'/ 
&OBST XB= 3210,3240,507,477,1229,1422,  SURF_ID='2'/ 
&OBST XB= 3210,3240,477,447,1229,1425,  SURF_ID='2'/ 
&OBST XB= 3210,3240,447,417,1229,1430,  SURF_ID='2'/ 
&OBST XB= 3210,3240,417,387,1229,1433,  SURF_ID='5'/ 
&OBST XB= 3210,3240,387,357,1229,1433,  SURF_ID='5'/ 
&OBST XB= 3210,3240,357,327,1229,1430,  SURF_ID='2'/ 
&OBST XB= 3210,3240,327,297,1229,1423,  SURF_ID='2'/ 
&OBST XB= 3210,3240,297,267,1229,1415,  SURF_ID='2'/ 
&OBST XB= 3210,3240,267,237,1229,1403,  SURF_ID='2'/ 
&OBST XB= 3210,3240,237,207,1229,1402,  SURF_ID='2'/ 
&OBST XB= 3210,3240,207,177,1229,1403,  SURF_ID='2'/ 
&OBST XB= 3210,3240,177,147,1229,1403,  SURF_ID='2'/ 
&OBST XB= 3210,3240,147,117,1229,1405,  SURF_ID='2'/ 
&OBST XB= 3210,3240,117,87,1229,1408,  SURF_ID='9'/ 
&OBST XB= 3210,3240,87,57,1229,1420,  SURF_ID='9'/ 
&OBST XB= 3210,3240,57,27,1229,1416,  SURF_ID='9'/ 
&OBST XB= 3210,3240,27,-3,1229,1404,  SURF_ID='2'/ 
&OBST XB= 3210,3240,-3,-33,1229,1370,  SURF_ID='2'/ 
&OBST XB= 3210,3240,-33,-63,1229,1370,  SURF_ID='2'/ 
&OBST XB= 3210,3240,-63,-93,1229,1349,  SURF_ID='2'/ 
&OBST XB= 3210,3240,-93,-123,1229,1330,  SURF_ID='8'/ 
&OBST XB= 3210,3240,-123,-153,1229,1328,  SURF_ID='2'/ 
&OBST XB= 3210,3240,-153,-183,1229,1331,  SURF_ID='2'/ 
&OBST XB= 3210,3240,-183,-213,1229,1343,  SURF_ID='2'/ 
&OBST XB= 3210,3240,-213,-243,1229,1372,  SURF_ID='2'/ 
&OBST XB= 3210,3240,-243,-273,1229,1372,  SURF_ID='2'/ 
&OBST XB= 3210,3240,-273,-303,1229,1377,  SURF_ID='2'/ 
&OBST XB= 3210,3240,-303,-333,1229,1379,  SURF_ID='2'/ 
&OBST XB= 3210,3240,-333,-363,1229,1381,  SURF_ID='2'/ 
&OBST XB= 3210,3240,-363,-393,1229,1371,  SURF_ID='2'/ 
&OBST XB= 3210,3240,-393,-423,1229,1372,  SURF_ID='2'/ 
&OBST XB= 3210,3240,-423,-453,1229,1372,  SURF_ID='8'/ 
&OBST XB= 3210,3240,-453,-483,1229,1372,  SURF_ID='8'/ 
&OBST XB= 3210,3240,-483,-513,1229,1386,  SURF_ID='2'/ 
&OBST XB= 3210,3240,-513,-543,1229,1396,  SURF_ID='5'/ 
&OBST XB= 3210,3240,-543,-573,1229,1402,  SURF_ID='5'/ 
&OBST XB= 3210,3240,-573,-603,1229,1405,  SURF_ID='2'/ 
&OBST XB= 3210,3240,-603,-633,1229,1404,  SURF_ID='2'/ 
&OBST XB= 3210,3240,-633,-663,1229,1402,  SURF_ID='2'/ 
&OBST XB= 3210,3240,-663,-693,1229,1402,  SURF_ID='2'/ 
&OBST XB= 3210,3240,-693,-723,1229,1406,  SURF_ID='2'/ 
&OBST XB= 3210,3240,-723,-753,1229,1416,  SURF_ID='2'/ 
&OBST XB= 3210,3240,-753,-783,1229,1422,  SURF_ID='2'/ 
&OBST XB= 3210,3240,-783,-813,1229,1424,  SURF_ID='2'/ 
&OBST XB= 3210,3240,-813,-843,1229,1427,  SURF_ID='5'/ 
&OBST XB= 3210,3240,-843,-873,1229,1425,  SURF_ID='5'/ 
&OBST XB= 3210,3240,-873,-903,1229,1425,  SURF_ID='5'/ 
&OBST XB= 3210,3240,-903,-933,1229,1421,  SURF_ID='8'/ 
&OBST XB= 3210,3240,-933,-963,1229,1398,  SURF_ID='9'/ 
&OBST XB= 3210,3240,-963,-993,1229,1397,  SURF_ID='9'/ 
&OBST XB= 3210,3240,-993,-1023,1229,1406,  SURF_ID='2'/ 
&OBST XB= 3210,3240,-1023,-1053,1229,1424,  SURF_ID='2'/ 
&OBST XB= 3210,3240,-1053,-1083,1229,1443,  SURF_ID='2'/ 
&OBST XB= 3210,3240,-1083,-1113,1229,1443,  SURF_ID='2'/ 
&OBST XB= 3210,3240,-1113,-1143,1229,1455,  SURF_ID='2'/ 
&OBST XB= 3210,3240,-1143,-1173,1229,1467,  SURF_ID='2'/ 
&OBST XB= 3210,3240,-1173,-1203,1229,1483,  SURF_ID='5'/ 
&OBST XB= 3210,3240,-1203,-1233,1229,1478,  SURF_ID='5'/ 
&OBST XB= 3210,3240,-1233,-1263,1229,1468,  SURF_ID='5'/ 
&OBST XB= 3210,3240,-1263,-1293,1229,1480,  SURF_ID='2'/ 
&OBST XB= 3210,3240,-1293,-1323,1229,1480,  SURF_ID='2'/ 
&OBST XB= 3210,3240,-1323,-1353,1229,1484,  SURF_ID='9'/ 
&OBST XB= 3210,3240,-1353,-1383,1229,1493,  SURF_ID='9'/ 
&OBST XB= 3210,3240,-1383,-1413,1229,1510,  SURF_ID='9'/ 
&OBST XB= 3210,3240,-1413,-1443,1229,1515,  SURF_ID='9'/ 
&OBST XB= 3210,3240,-1443,-1473,1229,1530,  SURF_ID='9'/ 
&OBST XB= 3210,3240,-1473,-1503,1229,1531,  SURF_ID='5'/ 
&OBST XB= 3210,3240,-1503,-1533,1229,1531,  SURF_ID='5'/ 
&OBST XB= 3210,3240,-1533,-1563,1229,1527,  SURF_ID='8'/ 
&OBST XB= 3210,3240,-1563,-1593,1229,1522,  SURF_ID='9'/ 
&OBST XB= 3210,3240,-1593,-1623,1229,1532,  SURF_ID='2'/ 
&OBST XB= 3210,3240,-1623,-1653,1229,1540,  SURF_ID='5'/ 
&OBST XB= 3210,3240,-1653,-1683,1229,1550,  SURF_ID='5'/ 
&OBST XB= 3210,3240,-1683,-1713,1229,1552,  SURF_ID='5'/ 
&OBST XB= 3210,3240,-1713,-1743,1229,1552,  SURF_ID='5'/ 
&OBST XB= 3210,3240,-1743,-1773,1229,1544,  SURF_ID='5'/ 
&OBST XB= 3210,3240,-1773,-1803,1229,1530,  SURF_ID='8'/ 
&OBST XB= 3210,3240,-1803,-1833,1229,1514,  SURF_ID='5'/ 
&OBST XB= 3210,3240,-1833,-1863,1229,1493,  SURF_ID='8'/ 
&OBST XB= 3210,3240,-1863,-1893,1229,1486,  SURF_ID='9'/ 
&OBST XB= 3210,3240,-1893,-1923,1229,1490,  SURF_ID='2'/ 
&OBST XB= 3210,3240,-1923,-1953,1229,1490,  SURF_ID='2'/ 
&OBST XB= 3210,3240,-1953,-1983,1229,1483,  SURF_ID='2'/ 
&OBST XB= 3210,3240,-1983,-2013,1229,1474,  SURF_ID='2'/ 
&OBST XB= 3210,3240,-2013,-2043,1229,1463,  SURF_ID='2'/ 
&OBST XB= 3210,3240,-2043,-2073,1229,1456,  SURF_ID='2'/ 
&OBST XB= 3210,3240,-2073,-2103,1229,1439,  SURF_ID='2'/ 
&OBST XB= 3210,3240,-2103,-2133,1229,1431,  SURF_ID='2'/ 
&OBST XB= 3210,3240,-2133,-2163,1229,1431,  SURF_ID='2'/ 
&OBST XB= 3210,3240,-2163,-2193,1229,1424,  SURF_ID='2'/ 
&OBST XB= 3210,3240,-2193,-2223,1229,1417,  SURF_ID='2'/ 
&OBST XB= 3210,3240,-2223,-2253,1229,1416,  SURF_ID='2'/ 
&OBST XB= 3210,3240,-2253,-2283,1229,1404,  SURF_ID='2'/ 
&OBST XB= 3210,3240,-2283,-2313,1229,1373,  SURF_ID='5'/ 
&OBST XB= 3210,3240,-2313,-2343,1229,1349,  SURF_ID='5'/ 
&OBST XB= 3210,3240,-2343,-2373,1229,1349,  SURF_ID='5'/ 
&OBST XB= 3210,3240,-2373,-2403,1229,1349,  SURF_ID='5'/ 
&OBST XB= 3210,3240,-2403,-2433,1229,1352,  SURF_ID='8'/ 
&OBST XB= 3210,3240,-2433,-2463,1229,1366,  SURF_ID='2'/ 
&OBST XB= 3210,3240,-2463,-2493,1229,1384,  SURF_ID='2'/ 
&OBST XB= 3210,3240,-2493,-2523,1229,1377,  SURF_ID='2'/ 
&OBST XB= 3210,3240,-2523,-2553,1229,1403,  SURF_ID='2'/ 
&OBST XB= 3210,3240,-2553,-2583,1229,1403,  SURF_ID='2'/ 
&OBST XB= 3210,3240,-2583,-2613,1229,1420,  SURF_ID='9'/ 
&OBST XB= 3210,3240,-2613,-2643,1229,1438,  SURF_ID='9'/ 
&OBST XB= 3210,3240,-2643,-2673,1229,1453,  SURF_ID='9'/ 
&OBST XB= 3210,3240,-2673,-2703,1229,1460,  SURF_ID='2'/ 
&OBST XB= 3210,3240,-2703,-2733,1229,1468,  SURF_ID='2'/ 
&OBST XB= 3210,3240,-2733,-2763,1229,1474,  SURF_ID='2'/ 
&OBST XB= 3210,3240,-2763,-2793,1229,1474,  SURF_ID='2'/ 
&OBST XB= 3210,3240,-2793,-2823,1229,1483,  SURF_ID='2'/ 
&OBST XB= 3210,3240,-2823,-2853,1229,1477,  SURF_ID='2'/ 
&OBST XB= 3210,3240,-2853,-2883,1229,1482,  SURF_ID='2'/ 
&OBST XB= 3210,3240,-2883,-2913,1229,1488,  SURF_ID='9'/ 
&OBST XB= 3210,3240,-2913,-2943,1229,1501,  SURF_ID='9'/ 
&OBST XB= 3210,3240,-2943,-2973,1229,1515,  SURF_ID='2'/ 
&OBST XB= 3210,3240,-2973,-3003,1229,1515,  SURF_ID='2'/ 
&OBST XB= 3210,3240,-3003,-3033,1229,1522,  SURF_ID='2'/ 
&OBST XB= 3210,3240,-3033,-3063,1229,1525,  SURF_ID='2'/ 
&OBST XB= 3210,3240,-3063,-3093,1229,1527,  SURF_ID='2'/ 
&OBST XB= 3210,3240,-3093,-3123,1229,1532,  SURF_ID='2'/ 
&OBST XB= 3210,3240,-3123,-3153,1229,1530,  SURF_ID='2'/ 
&OBST XB= 3210,3240,-3153,-3183,1229,1532,  SURF_ID='2'/ 
&OBST XB= 3210,3240,-3183,-3213,1229,1532,  SURF_ID='2'/ 
&OBST XB= 3210,3240,-3213,-3243,1229,1526,  SURF_ID='2'/ 

&TAIL /